data_structure

_audit_creation_method RASPA-1.0
_audit_creation_date 2023-5-19
_audit_author_name 'Poobodin Mano'

_cell_length_a    38.8296
_cell_length_b    41.6932
_cell_length_c    21.106
_cell_angle_alpha 89.9991
_cell_angle_beta  89.9989
_cell_angle_gamma 89.9609
_cell_volume      34169.1

_symmetry_cell_setting          triclinic
_symmetry_space_group_name_Hall 'P 1'
_symmetry_space_group_name_H-M  'P 1'
_symmetry_Int_Tables_number     1

_symmetry_equiv_pos_as_xyz 'x,y,z'

loop_
_atom_site_label
_atom_site_type_symbol
_atom_site_fract_x
_atom_site_fract_y
_atom_site_fract_z
_atom_site_charge
C1       C      0.456100000000     0.423060000000     0.256420000000     0.406872   
C2       C      0.456750000000     0.052080000000     0.468160000000     0.402319   
C3       C      0.477110000000     0.393740000000     0.063880000000     0.409204   
C4       C      0.445640000000     0.084620000000     0.173900000000     0.403589   
C5       C      0.057860000000     0.097600000000     0.204020000000     0.40547    
C6       C      0.097530000000     0.409210000000     0.083880000000     0.408352   
C7       C      0.079130000000     0.066630000000     0.483460000000     0.412159   
C8       C      0.088530000000     0.438320000000     0.279930000000     0.401793   
C9       C      0.335580000000     0.327520000000     0.470870000000     0.406103   
C10      C      0.318960000000     0.178130000000     0.204520000000     0.40289    
C11      C      0.326700000000     0.342630000000     0.262170000000     0.408386   
C12      C      0.337190000000     0.163180000000     0.417340000000     0.405409   
C13      C      0.220360000000     0.160570000000     0.455360000000     0.404135   
C14      C      0.198170000000     0.342580000000     0.288820000000     0.401834   
C15      C      0.202540000000     0.179510000000     0.224510000000     0.410087   
C16      C      0.222950000000     0.324710000000     0.007180000000     0.402712   
C17      C      0.150850000000     0.163410000000     0.162310000000     0.0157941  
C18      C      0.126370000000     0.143490000000     0.203120000000    -0.10487    
C19      C      0.088180000000     0.148910000000     0.188240000000     0.0120751  
C20      C      0.190590000000     0.107800000000     0.452120000000     0.0121422  
C21      C      0.151610000000     0.109350000000     0.463330000000    -0.105249   
C22      C      0.131150000000     0.084910000000     0.424510000000     0.0159322  
C23      C      0.186040000000     0.401310000000     0.288530000000     0.0222177  
C24      C      0.170240000000     0.409690000000     0.353570000000    -0.103159   
C25      C      0.140470000000     0.433970000000     0.349320000000     0.0134744  
C26      C      0.329940000000     0.121810000000     0.170400000000     0.0140329  
C27      C      0.363910000000     0.104020000000     0.158280000000    -0.104584   
C28      C      0.390500000000     0.108900000000     0.211650000000     0.0191545  
C29      C      0.430080000000     0.359640000000     0.022070000000     0.0222926  
C30      C      0.402940000000     0.361170000000     0.075210000000    -0.105501   
C31      C      0.372750000000     0.338450000000     0.063410000000     0.0160176  
C32      C      0.386410000000     0.141580000000     0.477820000000     0.0171181  
C33      C      0.406120000000     0.110000000000     0.486350000000    -0.108848   
C34      C      0.429230000000     0.102240000000     0.429230000000     0.0218579  
C35      C      0.149280000000     0.385970000000     0.032290000000     0.0235328  
C36      C      0.180580000000     0.395350000000     0.073000000000    -0.106682   
C37      C      0.213880000000     0.380120000000     0.048360000000     0.0161722  
C38      C      0.342120000000     0.400580000000     0.263810000000     0.0159088  
C39      C      0.376490000000     0.418720000000     0.260970000000    -0.10526    
C40      C      0.402180000000     0.408000000000     0.312930000000     0.0256005  
H1       H      0.445210000000     0.029270000000     0.088350000000     0.193975   
H2       H      0.035820000000     0.434790000000     0.028260000000     0.199078   
H3       H      0.087050000000     0.047660000000     0.118250000000     0.193643   
H4       H      0.014390000000     0.470850000000     0.280920000000     0.195764   
H5       H      0.471770000000     0.449660000000     0.404150000000     0.13745    
H6       H      0.095940000000     0.486110000000     0.410830000000     0.216059   
H7       H      0.145870000000     0.489750000000     0.101810000000     0.132328   
H8       H      0.137780000000     0.029610000000     0.202290000000     0.184693   
H9       H      0.035900000000     0.010160000000     0.354690000000     0.139067   
H10      H      0.475600000000     0.033180000000     0.334290000000     0.206532   
H11      H      0.395670000000     0.485900000000     0.164850000000     0.125587   
H12      H      0.400370000000     0.473790000000     0.037230000000     0.183543   
H13      H      0.130400000000     0.042020000000     0.276490000000     0.199159   
H14      H      0.446430000000     0.004100000000     0.346040000000     0.206595   
H15      H      0.410460000000     0.458510000000     0.466260000000     0.191491   
H16      H      0.068110000000     0.456160000000     0.424050000000     0.200689   
H17      H      0.338780000000     0.209730000000     0.315920000000     0.194945   
H18      H      0.256270000000     0.307290000000     0.235550000000     0.194239   
H19      H      0.196610000000     0.206630000000     0.360480000000     0.195783   
H20      H      0.280840000000     0.286160000000     0.493630000000     0.205605   
H21      H      0.309100000000     0.287300000000     0.118900000000     0.13563    
H22      H      0.173270000000     0.264010000000     0.150210000000     0.211184   
H23      H      0.145110000000     0.268530000000     0.341860000000     0.140894   
H24      H      0.152930000000     0.222370000000     0.463540000000     0.192947   
H25      H      0.255600000000     0.222740000000     0.076050000000     0.145087   
H26      H      0.361070000000     0.244130000000     0.055180000000     0.199077   
H27      H      0.388490000000     0.260210000000     0.356920000000     0.131443   
H28      H      0.385710000000     0.248290000000     0.230070000000     0.188061   
H29      H      0.152280000000     0.261940000000     0.476890000000     0.196794   
H30      H      0.324820000000     0.222630000000     0.061120000000     0.201911   
H31      H      0.374330000000     0.270140000000     0.166920000000     0.191451   
H32      H      0.210380000000     0.284210000000     0.143830000000     0.21148    
H33      H      0.143330000000     0.189150000000     0.163450000000     0.0374454  
H34      H      0.149350000000     0.155130000000     0.112320000000     0.0228314  
H35      H      0.070820000000     0.128850000000     0.275850000000     0.0984233  
H36      H      0.132650000000     0.117670000000     0.196230000000     0.0494228  
H37      H      0.130900000000     0.149390000000     0.253890000000     0.0532863  
H38      H      0.083190000000     0.145490000000     0.136760000000     0.0355826  
H39      H      0.080880000000     0.173860000000     0.201050000000     0.0296033  
H40      H      0.196590000000     0.135640000000     0.179830000000     0.0971632  
H41      H      0.196160000000     0.108460000000     0.400430000000     0.0354257  
H42      H      0.200910000000     0.084970000000     0.471580000000     0.0286722  
H43      H      0.081900000000     0.108380000000     0.430570000000     0.100467   
H44      H      0.146490000000     0.105290000000     0.014600000000     0.0516862  
H45      H      0.142240000000     0.133820000000     0.451120000000     0.0491509  
H46      H      0.141530000000     0.060350000000     0.432110000000     0.0360522  
H47      H      0.133650000000     0.090620000000     0.373270000000     0.0217936  
H48      H      0.201170000000     0.136940000000     0.033800000000     0.09833    
H49      H      0.214380000000     0.405230000000     0.289820000000     0.0322008  
H50      H      0.176090000000     0.417470000000     0.250770000000     0.0256404  
H51      H      0.106190000000     0.395910000000     0.319490000000     0.100551   
H52      H      0.161240000000     0.387700000000     0.378440000000     0.0574747  
H53      H      0.190660000000     0.420350000000     0.383880000000     0.0490831  
H54      H      0.149910000000     0.456220000000     0.326000000000     0.032311   
H55      H      0.132500000000     0.440100000000     0.398250000000     0.0282611  
H56      H      0.155990000000     0.363810000000     0.244990000000     0.099413   
H57      H      0.320020000000     0.114630000000     0.217760000000     0.0405406  
H58      H      0.310750000000     0.114130000000     0.134430000000     0.0287247  
H59      H      0.432380000000     0.132480000000     0.164810000000     0.0982557  
H60      H      0.358570000000     0.077940000000     0.153440000000     0.0510471  
H61      H      0.374460000000     0.112200000000     0.112190000000     0.0511918  
H62      H      0.388460000000     0.089290000000     0.247180000000     0.0366926  
H63      H      0.385600000000     0.131730000000     0.237380000000     0.0293973  
H64      H      0.349220000000     0.165620000000     0.127520000000     0.0945151  
H65      H      0.424440000000     0.377920000000     0.485080000000     0.0334707  
H66      H      0.429780000000     0.335820000000     0.498330000000     0.0296177  
H67      H      0.345970000000     0.373000000000     0.005130000000     0.0970818  
H68      H      0.414790000000     0.354060000000     0.121140000000     0.0509338  
H69      H      0.393520000000     0.386210000000     0.080750000000     0.0515323  
H70      H      0.355730000000     0.338320000000     0.105640000000     0.0193126  
H71      H      0.382950000000     0.313680000000     0.057600000000     0.0279355  
H72      H      0.475990000000     0.344250000000     0.069540000000     0.100174   
H73      H      0.404140000000     0.160350000000     0.459360000000     0.0349346  
H74      H      0.376940000000     0.149660000000     0.024840000000     0.0266879  
H75      H      0.420510000000     0.054260000000     0.396180000000     0.096167   
H76      H      0.422590000000     0.111890000000     0.029270000000     0.0580332  
H77      H      0.387440000000     0.090240000000     0.494940000000     0.0515636  
H78      H      0.453810000000     0.115830000000     0.432450000000     0.0363654  
H79      H      0.416340000000     0.109490000000     0.384370000000     0.0277496  
H80      H      0.349520000000     0.114840000000     0.420060000000     0.0988322  
H81      H      0.152980000000     0.362270000000     0.009180000000     0.0273035  
H82      H      0.145780000000     0.403590000000     0.493290000000     0.0312256  
H83      H      0.200520000000     0.335280000000     0.093630000000     0.0921358  
H84      H      0.183310000000     0.421900000000     0.073040000000     0.0538382  
H85      H      0.176730000000     0.387720000000     0.123040000000     0.0555189  
H86      H      0.235880000000     0.388460000000     0.077700000000     0.0249162  
H87      H      0.218210000000     0.388220000000     0.498770000000     0.0364012  
H88      H      0.113770000000     0.362170000000     0.094930000000     0.0997722  
H89      H      0.323210000000     0.412820000000     0.232540000000     0.0247265  
H90      H      0.332040000000     0.401410000000     0.313130000000     0.0376139  
H91      H      0.445240000000     0.377320000000     0.289670000000     0.100175   
H92      H      0.387700000000     0.415820000000     0.212770000000     0.0575378  
H93      H      0.371120000000     0.444730000000     0.267150000000     0.0566441  
H94      H      0.392710000000     0.386260000000     0.338070000000     0.0278306  
H95      H      0.404620000000     0.427140000000     0.349360000000     0.0177977  
H96      H      0.364460000000     0.362980000000     0.206060000000     0.0942706  
N1       N      0.068110000000     0.126470000000     0.226720000000    -0.217311   
N2       N      0.186010000000     0.158530000000     0.185810000000    -0.217725   
N3       N      0.094770000000     0.087200000000     0.442680000000    -0.21694    
N4       N      0.206620000000     0.134800000000     0.485410000000    -0.218807   
N5       N      0.110800000000     0.420550000000     0.315330000000    -0.218306   
N6       N      0.178470000000     0.368030000000     0.271010000000    -0.220138   
N7       N      0.425150000000     0.110480000000     0.184610000000    -0.21927    
N8       N      0.334590000000     0.156760000000     0.165270000000    -0.218076   
N9       N      0.352410000000     0.348690000000     0.008550000000    -0.220212   
N10      N      0.464260000000     0.364420000000     0.049410000000    -0.221286   
N11      N      0.436040000000     0.067780000000     0.426580000000    -0.221238   
N12      N      0.356770000000     0.137770000000     0.435160000000    -0.219654   
N13      N      0.211550000000     0.345060000000     0.052750000000    -0.219995   
N14      N      0.118470000000     0.383940000000     0.071850000000    -0.221907   
N15      N      0.436280000000     0.400930000000     0.286410000000    -0.222255   
N16      N      0.346410000000     0.367440000000     0.241760000000    -0.219184   
O1       O      0.444500000000     0.451930000000     0.251560000000    -0.384444   
O2       O      0.484900000000     0.413460000000     0.232900000000    -0.37802    
O3       O      0.455320000000     0.021240000000     0.467740000000    -0.390817   
O4       O      0.475360000000     0.068620000000     0.006770000000    -0.372006   
O5       O      0.464420000000     0.418660000000     0.036080000000    -0.380747   
O6       O      0.001050000000     0.394710000000     0.105670000000    -0.378852   
O7       O      0.437830000000     0.057460000000     0.199730000000    -0.372648   
O8       O      0.471780000000     0.089080000000     0.137670000000    -0.377648   
O9       O      0.400240000000     0.000060000000     0.201560000000    -0.344056   
O10      O      0.461030000000     0.016320000000     0.317940000000    -0.535953   
O11      O      0.417480000000     0.467850000000     0.006130000000    -0.521911   
O12      O      0.493240000000     0.458820000000     0.421840000000    -0.369578   
O13      O      0.472720000000     0.460370000000     0.135670000000    -0.499439   
O14      O      0.466480000000     0.018730000000     0.099710000000    -0.632976   
O15      O      0.060580000000     0.073410000000     0.241550000000    -0.372153   
O16      O      0.046550000000     0.095920000000     0.146760000000    -0.374716   
O17      O      0.103850000000     0.436120000000     0.056100000000    -0.382623   
O18      O      0.072320000000     0.404460000000     0.122120000000    -0.374208   
O19      O      0.093390000000     0.039250000000     0.494240000000    -0.377676   
O20      O      0.050790000000     0.075960000000     0.009100000000    -0.375302   
O21      O      0.092380000000     0.469080000000     0.277740000000    -0.378694   
O22      O      0.065250000000     0.422970000000     0.249020000000    -0.377534   
O23      O      0.122260000000     0.032340000000     0.237670000000    -0.526544   
O24      O      0.055250000000     0.024220000000     0.342150000000    -0.345807   
O25      O      0.140470000000     0.495990000000     0.057650000000    -0.348339   
O26      O      0.081430000000     0.474120000000     0.439460000000    -0.527551   
O27      O      0.068820000000     0.032000000000     0.121700000000    -0.631242   
O28      O      0.074720000000     0.473410000000     0.156460000000    -0.502703   
O29      O      0.009830000000     0.038910000000     0.200280000000    -0.493461   
O30      O      0.031530000000     0.453130000000     0.055070000000    -0.631702   
O31      O      0.015910000000     0.479530000000     0.238570000000    -0.633927   
O32      O      0.024820000000     0.012090000000     0.018430000000    -0.48925    
O33      O      0.343870000000     0.297620000000     0.474400000000    -0.386223   
O34      O      0.311500000000     0.338590000000     0.435320000000    -0.375054   
O35      O      0.324560000000     0.208300000000     0.194960000000    -0.383474   
O36      O      0.300060000000     0.167110000000     0.249390000000    -0.374056   
O37      O      0.332620000000     0.314830000000     0.237780000000    -0.386075   
O38      O      0.303950000000     0.348040000000     0.305170000000    -0.375776   
O39      O      0.346320000000     0.191210000000     0.436650000000    -0.380342   
O40      O      0.310810000000     0.157720000000     0.381930000000    -0.374293   
O41      O      0.388200000000     0.250420000000     0.399660000000    -0.34918    
O42      O      0.340220000000     0.235820000000     0.036350000000    -0.52439    
O43      O      0.368250000000     0.259400000000     0.205940000000    -0.52099    
O44      O      0.290520000000     0.273650000000     0.136380000000    -0.365186   
O45      O      0.319480000000     0.283980000000     0.343750000000    -0.497638   
O46      O      0.319050000000     0.222930000000     0.325810000000    -0.633931   
O47      O      0.219410000000     0.187510000000     0.485030000000    -0.382169   
O48      O      0.233100000000     0.156850000000     0.399510000000    -0.38004    
O49      O      0.188480000000     0.314570000000     0.270210000000    -0.383649   
O50      O      0.225250000000     0.347800000000     0.322550000000    -0.377835   
O51      O      0.191470000000     0.208630000000     0.227390000000    -0.371357   
O52      O      0.228590000000     0.168860000000     0.255790000000    -0.372687   
O53      O      0.217060000000     0.294580000000     0.015350000000    -0.387418   
O54      O      0.239100000000     0.336480000000     0.459280000000    -0.375202   
O55      O      0.165010000000     0.242480000000     0.468530000000    -0.532065   
O56      O      0.233540000000     0.234500000000     0.072210000000    -0.332873   
O57      O      0.148120000000     0.254030000000     0.305110000000    -0.352351   
O58      O      0.194650000000     0.271380000000     0.168560000000    -0.519024   
O59      O      0.216350000000     0.220690000000     0.358680000000    -0.633527   
O60      O      0.217100000000     0.282540000000     0.378000000000    -0.502509   
O61      O      0.277180000000     0.214480000000     0.434990000000    -0.500525   
O62      O      0.259380000000     0.290670000000     0.266940000000    -0.628843   
O63      O      0.277310000000     0.275670000000     0.453400000000    -0.636539   
O64      O      0.258640000000     0.229260000000     0.249240000000    -0.487352   
Zr1      Zr     0.462750000000     0.003230000000     0.207210000000     1.37801    
Zr2      Zr     0.477720000000     0.476030000000     0.028340000000     1.37215    
Zr3      Zr     0.063160000000     0.015290000000     0.229030000000     1.37208    
Zr4      Zr     0.078340000000     0.489540000000     0.049050000000     1.38348    
Zr5      Zr     0.027040000000     0.438090000000     0.163560000000     1.38267    
Zr6      Zr     0.014550000000     0.054160000000     0.091990000000     1.3769     
Zr7      Zr     0.327390000000     0.246530000000     0.426650000000     1.38581    
Zr8      Zr     0.309560000000     0.260310000000     0.243080000000     1.36831    
Zr9      Zr     0.226840000000     0.244130000000     0.459210000000     1.37984    
Zr10     Zr     0.208660000000     0.259100000000     0.276880000000     1.3842     
Zr11     Zr     0.268610000000     0.313120000000     0.369450000000     1.37571    
Zr12     Zr     0.267580000000     0.191950000000     0.333010000000     1.37639    
C41      C      0.456100000000     0.423060000000     0.756410000000     0.406933   
C42      C      0.456750000000     0.052080000000     0.968160000000     0.402234   
C43      C      0.477110000000     0.393740000000     0.563880000000     0.409248   
C44      C      0.445640000000     0.084620000000     0.673900000000     0.403519   
C45      C      0.057860000000     0.097600000000     0.704020000000     0.405464   
C46      C      0.097530000000     0.409210000000     0.583870000000     0.408331   
C47      C      0.079130000000     0.066630000000     0.983460000000     0.412103   
C48      C      0.088530000000     0.438320000000     0.779930000000     0.401613   
C49      C      0.335580000000     0.327520000000     0.970870000000     0.405924   
C50      C      0.318960000000     0.178130000000     0.704520000000     0.402887   
C51      C      0.326700000000     0.342630000000     0.762170000000     0.40831    
C52      C      0.337190000000     0.163180000000     0.917330000000     0.405407   
C53      C      0.220360000000     0.160570000000     0.955360000000     0.404136   
C54      C      0.198170000000     0.342580000000     0.788820000000     0.401768   
C55      C      0.202540000000     0.179510000000     0.724510000000     0.410079   
C56      C      0.222950000000     0.324710000000     0.507180000000     0.402671   
C57      C      0.150850000000     0.163410000000     0.662310000000     0.0157597  
C58      C      0.126370000000     0.143490000000     0.703120000000    -0.104782   
C59      C      0.088180000000     0.148910000000     0.688240000000     0.0120323  
C60      C      0.190590000000     0.107800000000     0.952120000000     0.0121751  
C61      C      0.151610000000     0.109350000000     0.963330000000    -0.105365   
C62      C      0.131150000000     0.084910000000     0.924520000000     0.0159976  
C63      C      0.186040000000     0.401310000000     0.788530000000     0.0221927  
C64      C      0.170240000000     0.409690000000     0.853570000000    -0.103134   
C65      C      0.140470000000     0.433970000000     0.849320000000     0.0134832  
C66      C      0.329940000000     0.121810000000     0.670400000000     0.0140173  
C67      C      0.363910000000     0.104020000000     0.658280000000    -0.104575   
C68      C      0.390500000000     0.108900000000     0.711650000000     0.0191487  
C69      C      0.430080000000     0.359650000000     0.522070000000     0.0221794  
C70      C      0.402940000000     0.361170000000     0.575210000000    -0.105495   
C71      C      0.372750000000     0.338450000000     0.563400000000     0.0160496  
C72      C      0.386410000000     0.141580000000     0.977820000000     0.0170587  
C73      C      0.406120000000     0.110000000000     0.986350000000    -0.108924   
C74      C      0.429230000000     0.102240000000     0.929230000000     0.021869   
C75      C      0.149280000000     0.385970000000     0.532290000000     0.0235052  
C76      C      0.180580000000     0.395350000000     0.573000000000    -0.106731   
C77      C      0.213880000000     0.380120000000     0.548360000000     0.0161084  
C78      C      0.342120000000     0.400580000000     0.763800000000     0.0159203  
C79      C      0.376490000000     0.418720000000     0.760970000000    -0.105263   
C80      C      0.402180000000     0.408000000000     0.812930000000     0.0255908  
H97      H      0.445210000000     0.029270000000     0.588350000000     0.193998   
H98      H      0.035820000000     0.434790000000     0.528260000000     0.199047   
H99      H      0.087050000000     0.047660000000     0.618250000000     0.193627   
H100     H      0.014390000000     0.470850000000     0.780920000000     0.195757   
H101     H      0.471770000000     0.449660000000     0.904150000000     0.137453   
H102     H      0.095940000000     0.486110000000     0.910830000000     0.216094   
H103     H      0.145870000000     0.489750000000     0.601810000000     0.132257   
H104     H      0.137780000000     0.029610000000     0.702290000000     0.184688   
H105     H      0.035900000000     0.010160000000     0.854690000000     0.139059   
H106     H      0.475600000000     0.033170000000     0.834290000000     0.206704   
H107     H      0.395670000000     0.485900000000     0.664850000000     0.125581   
H108     H      0.400370000000     0.473790000000     0.537230000000     0.18351    
H109     H      0.130400000000     0.042020000000     0.776490000000     0.199156   
H110     H      0.446430000000     0.004100000000     0.846040000000     0.206648   
H111     H      0.410460000000     0.458510000000     0.966260000000     0.191349   
H112     H      0.068120000000     0.456160000000     0.924050000000     0.200794   
H113     H      0.338780000000     0.209730000000     0.815920000000     0.19494    
H114     H      0.256270000000     0.307290000000     0.735550000000     0.194231   
H115     H      0.196610000000     0.206630000000     0.860480000000     0.195781   
H116     H      0.280840000000     0.286160000000     0.993630000000     0.205573   
H117     H      0.309100000000     0.287300000000     0.618900000000     0.135619   
H118     H      0.173270000000     0.264020000000     0.650210000000     0.211252   
H119     H      0.145110000000     0.268530000000     0.841850000000     0.140957   
H120     H      0.152930000000     0.222370000000     0.963540000000     0.192942   
H121     H      0.255600000000     0.222740000000     0.576040000000     0.145073   
H122     H      0.361070000000     0.244130000000     0.555180000000     0.199006   
H123     H      0.388490000000     0.260210000000     0.856920000000     0.131442   
H124     H      0.385710000000     0.248290000000     0.730070000000     0.188019   
H125     H      0.152280000000     0.261940000000     0.976890000000     0.196753   
H126     H      0.324820000000     0.222630000000     0.561120000000     0.201828   
H127     H      0.374330000000     0.270140000000     0.666920000000     0.191532   
H128     H      0.210380000000     0.284210000000     0.643830000000     0.211498   
H129     H      0.143330000000     0.189150000000     0.663440000000     0.0374494  
H130     H      0.149350000000     0.155130000000     0.612330000000     0.0228335  
H131     H      0.070820000000     0.128850000000     0.775850000000     0.0984193  
H132     H      0.132650000000     0.117660000000     0.696220000000     0.0493728  
H133     H      0.130900000000     0.149390000000     0.753890000000     0.0532675  
H134     H      0.083190000000     0.145490000000     0.636770000000     0.0355884  
H135     H      0.080880000000     0.173860000000     0.701050000000     0.0296075  
H136     H      0.196590000000     0.135640000000     0.679830000000     0.0971593  
H137     H      0.196160000000     0.108460000000     0.900430000000     0.0354173  
H138     H      0.200910000000     0.084970000000     0.971580000000     0.028644   
H139     H      0.081900000000     0.108380000000     0.930570000000     0.100454   
H140     H      0.146490000000     0.105290000000     0.514600000000     0.0516151  
H141     H      0.142240000000     0.133820000000     0.951120000000     0.0491614  
H142     H      0.141530000000     0.060350000000     0.932100000000     0.0360223  
H143     H      0.133650000000     0.090620000000     0.873260000000     0.021776   
H144     H      0.201170000000     0.136940000000     0.533800000000     0.0982793  
H145     H      0.214380000000     0.405230000000     0.789820000000     0.0322041  
H146     H      0.176090000000     0.417460000000     0.750770000000     0.025648   
H147     H      0.106190000000     0.395910000000     0.819490000000     0.100544   
H148     H      0.161240000000     0.387700000000     0.878450000000     0.057455   
H149     H      0.190660000000     0.420350000000     0.883880000000     0.0490708  
H150     H      0.149910000000     0.456220000000     0.826000000000     0.0323026  
H151     H      0.132500000000     0.440100000000     0.898260000000     0.0282446  
H152     H      0.155990000000     0.363810000000     0.744990000000     0.0994089  
H153     H      0.320020000000     0.114630000000     0.717750000000     0.0405416  
H154     H      0.310750000000     0.114130000000     0.634430000000     0.0287176  
H155     H      0.432380000000     0.132480000000     0.664810000000     0.0982485  
H156     H      0.358570000000     0.077940000000     0.653440000000     0.051038   
H157     H      0.374460000000     0.112200000000     0.612190000000     0.0511809  
H158     H      0.388460000000     0.089290000000     0.747180000000     0.0366933  
H159     H      0.385600000000     0.131730000000     0.737380000000     0.0293971  
H160     H      0.349220000000     0.165620000000     0.627520000000     0.09451    
H161     H      0.424440000000     0.377920000000     0.985080000000     0.0334035  
H162     H      0.429780000000     0.335830000000     0.998340000000     0.029543   
H163     H      0.345970000000     0.373000000000     0.505130000000     0.0970624  
H164     H      0.414790000000     0.354060000000     0.621140000000     0.0509306  
H165     H      0.393520000000     0.386210000000     0.580750000000     0.0515281  
H166     H      0.355730000000     0.338320000000     0.605640000000     0.0192976  
H167     H      0.382950000000     0.313680000000     0.557590000000     0.0279082  
H168     H      0.475990000000     0.344250000000     0.569540000000     0.100162   
H169     H      0.404140000000     0.160350000000     0.959350000000     0.0349316  
H170     H      0.376940000000     0.149660000000     0.524840000000     0.0266303  
H171     H      0.420510000000     0.054260000000     0.896180000000     0.0961607  
H172     H      0.422590000000     0.111890000000     0.529270000000     0.0579771  
H173     H      0.387440000000     0.090240000000     0.994930000000     0.0515602  
H174     H      0.453810000000     0.115830000000     0.932440000000     0.036342   
H175     H      0.416340000000     0.109490000000     0.884370000000     0.0277448  
H176     H      0.349520000000     0.114840000000     0.920060000000     0.0988215  
H177     H      0.152980000000     0.362270000000     0.509170000000     0.0272884  
H178     H      0.145780000000     0.403590000000     0.993300000000     0.0311752  
H179     H      0.200520000000     0.335280000000     0.593630000000     0.092103   
H180     H      0.183310000000     0.421890000000     0.573030000000     0.0538619  
H181     H      0.176730000000     0.387720000000     0.623040000000     0.0555302  
H182     H      0.235880000000     0.388460000000     0.577700000000     0.0249154  
H183     H      0.218210000000     0.388220000000     0.998770000000     0.0363413  
H184     H      0.113770000000     0.362170000000     0.594930000000     0.0997475  
H185     H      0.323210000000     0.412820000000     0.732550000000     0.0247211  
H186     H      0.332040000000     0.401410000000     0.813130000000     0.037617   
H187     H      0.445240000000     0.377320000000     0.789670000000     0.100172   
H188     H      0.387700000000     0.415820000000     0.712770000000     0.0575361  
H189     H      0.371120000000     0.444730000000     0.767150000000     0.0566439  
H190     H      0.392710000000     0.386260000000     0.838070000000     0.027829   
H191     H      0.404620000000     0.427130000000     0.849360000000     0.0178007  
H192     H      0.364460000000     0.362980000000     0.706060000000     0.0942665  
N17      N      0.068110000000     0.126470000000     0.726720000000    -0.217305   
N18      N      0.186010000000     0.158530000000     0.685810000000    -0.217716   
N19      N      0.094770000000     0.087200000000     0.942680000000    -0.216948   
N20      N      0.206620000000     0.134800000000     0.985410000000    -0.218856   
N21      N      0.110800000000     0.420550000000     0.815340000000    -0.218263   
N22      N      0.178470000000     0.368030000000     0.771010000000    -0.220124   
N23      N      0.425150000000     0.110480000000     0.684610000000    -0.219257   
N24      N      0.334590000000     0.156760000000     0.665270000000    -0.218074   
N25      N      0.352410000000     0.348690000000     0.508550000000    -0.220288   
N26      N      0.464260000000     0.364420000000     0.549410000000    -0.221293   
N27      N      0.436040000000     0.067780000000     0.926580000000    -0.221234   
N28      N      0.356770000000     0.137770000000     0.935160000000    -0.219641   
N29      N      0.211550000000     0.345060000000     0.552740000000    -0.219985   
N30      N      0.118470000000     0.383940000000     0.571840000000    -0.221894   
N31      N      0.436280000000     0.400930000000     0.786410000000    -0.222245   
N32      N      0.346410000000     0.367440000000     0.741760000000    -0.219167   
O65      O      0.444500000000     0.451930000000     0.751560000000    -0.384457   
O66      O      0.484900000000     0.413460000000     0.732910000000    -0.378052   
O67      O      0.455320000000     0.021240000000     0.967740000000    -0.390851   
O68      O      0.475360000000     0.068620000000     0.506770000000    -0.372068   
O69      O      0.464420000000     0.418660000000     0.536090000000    -0.380773   
O70      O      0.001050000000     0.394710000000     0.605670000000    -0.378858   
O71      O      0.437830000000     0.057460000000     0.699730000000    -0.372634   
O72      O      0.471780000000     0.089080000000     0.637660000000    -0.377623   
O73      O      0.400240000000     0.000060000000     0.701560000000    -0.344057   
O74      O      0.461030000000     0.016320000000     0.817940000000    -0.53616    
O75      O      0.417480000000     0.467840000000     0.506130000000    -0.522014   
O76      O      0.493240000000     0.458820000000     0.921840000000    -0.369611   
O77      O      0.472720000000     0.460360000000     0.635670000000    -0.499371   
O78      O      0.466480000000     0.018730000000     0.599700000000    -0.632994   
O79      O      0.060580000000     0.073410000000     0.741550000000    -0.372154   
O80      O      0.046550000000     0.095920000000     0.646760000000    -0.374712   
O81      O      0.103850000000     0.436120000000     0.556100000000    -0.382679   
O82      O      0.072320000000     0.404460000000     0.622120000000    -0.374169   
O83      O      0.093390000000     0.039250000000     0.994240000000    -0.377697   
O84      O      0.050790000000     0.075960000000     0.509110000000    -0.375364   
O85      O      0.092380000000     0.469080000000     0.777730000000    -0.378672   
O86      O      0.065250000000     0.422960000000     0.749020000000    -0.377417   
O87      O      0.122260000000     0.032340000000     0.737670000000    -0.526543   
O88      O      0.055250000000     0.024220000000     0.842150000000    -0.345814   
O89      O      0.140470000000     0.495990000000     0.557640000000    -0.34836    
O90      O      0.081430000000     0.474120000000     0.939460000000    -0.527724   
O91      O      0.068820000000     0.032000000000     0.621700000000    -0.63122    
O92      O      0.074720000000     0.473410000000     0.656460000000    -0.502692   
O93      O      0.009830000000     0.038910000000     0.700280000000    -0.493475   
O94      O      0.031530000000     0.453130000000     0.555070000000    -0.631621   
O95      O      0.015910000000     0.479530000000     0.738570000000    -0.633927   
O96      O      0.024820000000     0.012090000000     0.518430000000    -0.489215   
O97      O      0.343870000000     0.297620000000     0.974400000000    -0.386213   
O98      O      0.311500000000     0.338600000000     0.935320000000    -0.374955   
O99      O      0.324560000000     0.208300000000     0.694960000000    -0.38347    
O100     O      0.300060000000     0.167110000000     0.749390000000    -0.374055   
O101     O      0.332620000000     0.314830000000     0.737780000000    -0.386071   
O102     O      0.303950000000     0.348050000000     0.805170000000    -0.3757     
O103     O      0.346320000000     0.191210000000     0.936650000000    -0.380344   
O104     O      0.310810000000     0.157720000000     0.881930000000    -0.374328   
O105     O      0.388200000000     0.250420000000     0.899660000000    -0.349194   
O106     O      0.340220000000     0.235820000000     0.536340000000    -0.524328   
O107     O      0.368250000000     0.259400000000     0.705930000000    -0.521022   
O108     O      0.290520000000     0.273650000000     0.636380000000    -0.365187   
O109     O      0.319480000000     0.283980000000     0.843750000000    -0.497643   
O110     O      0.319050000000     0.222930000000     0.825810000000    -0.633921   
O111     O      0.219410000000     0.187510000000     0.985030000000    -0.382195   
O112     O      0.233100000000     0.156850000000     0.899510000000    -0.380042   
O113     O      0.188480000000     0.314570000000     0.770210000000    -0.383633   
O114     O      0.225250000000     0.347800000000     0.822560000000    -0.377795   
O115     O      0.191470000000     0.208630000000     0.727380000000    -0.371337   
O116     O      0.228590000000     0.168860000000     0.755790000000    -0.37269    
O117     O      0.217060000000     0.294580000000     0.515350000000    -0.38745    
O118     O      0.239100000000     0.336480000000     0.959280000000    -0.37525    
O119     O      0.165010000000     0.242480000000     0.968520000000    -0.532064   
O120     O      0.233540000000     0.234500000000     0.572210000000    -0.332897   
O121     O      0.148120000000     0.254030000000     0.805110000000    -0.352418   
O122     O      0.194650000000     0.271380000000     0.668560000000    -0.519111   
O123     O      0.216350000000     0.220690000000     0.858680000000    -0.633518   
O124     O      0.217100000000     0.282540000000     0.877990000000    -0.50251    
O125     O      0.277180000000     0.214480000000     0.934990000000    -0.500523   
O126     O      0.259380000000     0.290670000000     0.766940000000    -0.628836   
O127     O      0.277310000000     0.275670000000     0.953400000000    -0.63653    
O128     O      0.258640000000     0.229260000000     0.749240000000    -0.48735    
Zr13     Zr     0.462750000000     0.003230000000     0.707210000000     1.37798    
Zr14     Zr     0.477720000000     0.476030000000     0.528340000000     1.37207    
Zr15     Zr     0.063160000000     0.015290000000     0.729030000000     1.37208    
Zr16     Zr     0.078350000000     0.489540000000     0.549050000000     1.38338    
Zr17     Zr     0.027040000000     0.438090000000     0.663560000000     1.38264    
Zr18     Zr     0.014550000000     0.054160000000     0.591990000000     1.37687    
Zr19     Zr     0.327390000000     0.246530000000     0.926650000000     1.38572    
Zr20     Zr     0.309560000000     0.260310000000     0.743080000000     1.36829    
Zr21     Zr     0.226840000000     0.244130000000     0.959210000000     1.37974    
Zr22     Zr     0.208660000000     0.259100000000     0.776880000000     1.38424    
Zr23     Zr     0.268610000000     0.313120000000     0.869450000000     1.37562    
Zr24     Zr     0.267580000000     0.191950000000     0.833010000000     1.37639    
C81      C      0.456100000000     0.923060000000     0.256420000000     0.407144   
C82      C      0.456750000000     0.552080000000     0.468160000000     0.402376   
C83      C      0.477110000000     0.893740000000     0.063880000000     0.409148   
C84      C      0.445640000000     0.584620000000     0.173900000000     0.403676   
C85      C      0.057860000000     0.597600000000     0.204020000000     0.405375   
C86      C      0.097530000000     0.909210000000     0.083880000000     0.408317   
C87      C      0.079130000000     0.566630000000     0.483460000000     0.412233   
C88      C      0.088530000000     0.938320000000     0.279930000000     0.401951   
C89      C      0.335580000000     0.827520000000     0.470870000000     0.405986   
C90      C      0.318960000000     0.678140000000     0.204520000000     0.402825   
C91      C      0.326700000000     0.842630000000     0.262170000000     0.408389   
C92      C      0.337190000000     0.663190000000     0.417340000000     0.405465   
C93      C      0.220360000000     0.660570000000     0.455360000000     0.404134   
C94      C      0.198170000000     0.842580000000     0.288820000000     0.401748   
C95      C      0.202540000000     0.679510000000     0.224510000000     0.410118   
C96      C      0.222950000000     0.824710000000     0.007180000000     0.402726   
C97      C      0.150850000000     0.663410000000     0.162310000000     0.015843   
C98      C      0.126370000000     0.643490000000     0.203120000000    -0.104849   
C99      C      0.088180000000     0.648920000000     0.188240000000     0.0120142  
C100     C      0.190590000000     0.607810000000     0.452120000000     0.0122623  
C101     C      0.151610000000     0.609360000000     0.463330000000    -0.105383   
C102     C      0.131150000000     0.584910000000     0.424510000000     0.0159893  
C103     C      0.186040000000     0.901320000000     0.288530000000     0.0221109  
C104     C      0.170240000000     0.909680000000     0.353570000000    -0.103101   
C105     C      0.140470000000     0.933980000000     0.349320000000     0.0133795  
C106     C      0.329940000000     0.621810000000     0.170400000000     0.0140335  
C107     C      0.363910000000     0.604020000000     0.158280000000    -0.104587   
C108     C      0.390500000000     0.608900000000     0.211650000000     0.0191716  
C109     C      0.430080000000     0.859650000000     0.022070000000     0.0223282  
C110     C      0.402940000000     0.861170000000     0.075210000000    -0.105511   
C111     C      0.372750000000     0.838450000000     0.063410000000     0.0160191  
C112     C      0.386410000000     0.641580000000     0.477820000000     0.0170845  
C113     C      0.406120000000     0.610000000000     0.486350000000    -0.108827   
C114     C      0.429230000000     0.602240000000     0.429230000000     0.0218557  
C115     C      0.149280000000     0.885970000000     0.032290000000     0.0235267  
C116     C      0.180580000000     0.895350000000     0.073000000000    -0.10668    
C117     C      0.213880000000     0.880120000000     0.048360000000     0.0161724  
C118     C      0.342120000000     0.900580000000     0.263810000000     0.0159013  
C119     C      0.376490000000     0.918720000000     0.260970000000    -0.105237   
C120     C      0.402180000000     0.908000000000     0.312930000000     0.0255738  
H193     H      0.445210000000     0.529270000000     0.088350000000     0.193908   
H194     H      0.035820000000     0.934790000000     0.028260000000     0.1991     
H195     H      0.087050000000     0.547670000000     0.118250000000     0.193471   
H196     H      0.014390000000     0.970850000000     0.280920000000     0.195654   
H197     H      0.471760000000     0.949660000000     0.404150000000     0.137254   
H198     H      0.095940000000     0.986110000000     0.410830000000     0.215797   
H199     H      0.145870000000     0.989750000000     0.101810000000     0.132189   
H200     H      0.137780000000     0.529610000000     0.202290000000     0.184383   
H201     H      0.035900000000     0.510160000000     0.354690000000     0.138739   
H202     H      0.475590000000     0.533180000000     0.334290000000     0.206753   
H203     H      0.395670000000     0.985900000000     0.164850000000     0.124784   
H204     H      0.400370000000     0.973790000000     0.037230000000     0.183355   
H205     H      0.130400000000     0.542020000000     0.276490000000     0.198987   
H206     H      0.446430000000     0.504100000000     0.346040000000     0.206183   
H207     H      0.410460000000     0.958510000000     0.466260000000     0.191289   
H208     H      0.068110000000     0.956160000000     0.424050000000     0.200616   
H209     H      0.338780000000     0.709730000000     0.315920000000     0.194939   
H210     H      0.256270000000     0.807290000000     0.235550000000     0.194229   
H211     H      0.196610000000     0.706630000000     0.360480000000     0.195786   
H212     H      0.280840000000     0.786160000000     0.493630000000     0.205598   
H213     H      0.309100000000     0.787290000000     0.118900000000     0.135843   
H214     H      0.173260000000     0.764010000000     0.150210000000     0.210954   
H215     H      0.145110000000     0.768530000000     0.341860000000     0.140906   
H216     H      0.152930000000     0.722370000000     0.463540000000     0.193058   
H217     H      0.255600000000     0.722740000000     0.076050000000     0.14501    
H218     H      0.361070000000     0.744130000000     0.055180000000     0.199084   
H219     H      0.388490000000     0.760210000000     0.356920000000     0.131453   
H220     H      0.385710000000     0.748280000000     0.230070000000     0.187958   
H221     H      0.152280000000     0.761950000000     0.476890000000     0.196457   
H222     H      0.324820000000     0.722630000000     0.061120000000     0.201918   
H223     H      0.374330000000     0.770140000000     0.166920000000     0.191425   
H224     H      0.210380000000     0.784220000000     0.143830000000     0.211282   
H225     H      0.143330000000     0.689150000000     0.163450000000     0.0374441  
H226     H      0.149350000000     0.655130000000     0.112320000000     0.0228156  
H227     H      0.070820000000     0.628860000000     0.275850000000     0.09842    
H228     H      0.132650000000     0.617670000000     0.196230000000     0.0493988  
H229     H      0.130900000000     0.649390000000     0.253890000000     0.0532825  
H230     H      0.083190000000     0.645490000000     0.136760000000     0.0356121  
H231     H      0.080880000000     0.673870000000     0.201050000000     0.0296273  
H232     H      0.196590000000     0.635640000000     0.179830000000     0.0970714  
H233     H      0.196160000000     0.608460000000     0.400430000000     0.0353312  
H234     H      0.200910000000     0.584980000000     0.471580000000     0.0284966  
H235     H      0.081900000000     0.608390000000     0.430570000000     0.100415   
H236     H      0.146490000000     0.605290000000     0.014600000000     0.0516711  
H237     H      0.142240000000     0.633820000000     0.451120000000     0.0492135  
H238     H      0.141530000000     0.560340000000     0.432110000000     0.0358549  
H239     H      0.133650000000     0.590620000000     0.373270000000     0.0217441  
H240     H      0.201170000000     0.636940000000     0.033800000000     0.0983051  
H241     H      0.214380000000     0.905230000000     0.289820000000     0.0321866  
H242     H      0.176090000000     0.917460000000     0.250770000000     0.0256273  
H243     H      0.106190000000     0.895910000000     0.319490000000     0.100567   
H244     H      0.161240000000     0.887700000000     0.378440000000     0.0574932  
H245     H      0.190660000000     0.920350000000     0.383880000000     0.049008   
H246     H      0.149910000000     0.956220000000     0.326000000000     0.0322132  
H247     H      0.132500000000     0.940100000000     0.398250000000     0.0282546  
H248     H      0.155990000000     0.863810000000     0.244990000000     0.0994176  
H249     H      0.320020000000     0.614630000000     0.217760000000     0.0404911  
H250     H      0.310750000000     0.614130000000     0.134430000000     0.0286531  
H251     H      0.432380000000     0.632480000000     0.164810000000     0.0982715  
H252     H      0.358570000000     0.577940000000     0.153440000000     0.0509307  
H253     H      0.374460000000     0.612200000000     0.112190000000     0.0511715  
H254     H      0.388460000000     0.589280000000     0.247180000000     0.0366507  
H255     H      0.385600000000     0.631730000000     0.237380000000     0.0293955  
H256     H      0.349220000000     0.665620000000     0.127520000000     0.0945023  
H257     H      0.424440000000     0.877920000000     0.485080000000     0.0334703  
H258     H      0.429780000000     0.835820000000     0.498330000000     0.0296289  
H259     H      0.345970000000     0.873000000000     0.005130000000     0.0970562  
H260     H      0.414790000000     0.854060000000     0.121140000000     0.0509425  
H261     H      0.393520000000     0.886210000000     0.080750000000     0.0515213  
H262     H      0.355730000000     0.838320000000     0.105640000000     0.0193072  
H263     H      0.382950000000     0.813680000000     0.057600000000     0.0279391  
H264     H      0.475990000000     0.844250000000     0.069540000000     0.100186   
H265     H      0.404140000000     0.660350000000     0.459360000000     0.0349525  
H266     H      0.376940000000     0.649660000000     0.024840000000     0.0266925  
H267     H      0.420510000000     0.554260000000     0.396180000000     0.0960691  
H268     H      0.422590000000     0.611890000000     0.029270000000     0.0580288  
H269     H      0.387440000000     0.590240000000     0.494940000000     0.0514777  
H270     H      0.453810000000     0.615840000000     0.432450000000     0.0363692  
H271     H      0.416340000000     0.609490000000     0.384370000000     0.0277408  
H272     H      0.349520000000     0.614840000000     0.420060000000     0.098765   
H273     H      0.152980000000     0.862270000000     0.009180000000     0.0273128  
H274     H      0.145780000000     0.903590000000     0.493290000000     0.0312226  
H275     H      0.200520000000     0.835290000000     0.093630000000     0.0921743  
H276     H      0.183310000000     0.921900000000     0.073040000000     0.0537863  
H277     H      0.176730000000     0.887720000000     0.123040000000     0.0555045  
H278     H      0.235880000000     0.888460000000     0.077700000000     0.0248777  
H279     H      0.218210000000     0.888230000000     0.498770000000     0.0363678  
H280     H      0.113770000000     0.862170000000     0.094930000000     0.0997829  
H281     H      0.323210000000     0.912820000000     0.232540000000     0.0246635  
H282     H      0.332040000000     0.901410000000     0.313130000000     0.0375759  
H283     H      0.445240000000     0.877310000000     0.289670000000     0.100123   
H284     H      0.387700000000     0.915820000000     0.212770000000     0.0575002  
H285     H      0.371120000000     0.944730000000     0.267150000000     0.056475   
H286     H      0.392710000000     0.886260000000     0.338070000000     0.027837   
H287     H      0.404620000000     0.927130000000     0.349360000000     0.0177224  
H288     H      0.364460000000     0.862980000000     0.206060000000     0.0942705  
N33      N      0.068110000000     0.626470000000     0.226720000000    -0.217266   
N34      N      0.186000000000     0.658530000000     0.185810000000    -0.217695   
N35      N      0.094770000000     0.587200000000     0.442680000000    -0.216925   
N36      N      0.206620000000     0.634800000000     0.485410000000    -0.218844   
N37      N      0.110800000000     0.920550000000     0.315330000000    -0.218321   
N38      N      0.178470000000     0.868030000000     0.271010000000    -0.220095   
N39      N      0.425150000000     0.610480000000     0.184610000000    -0.219287   
N40      N      0.334590000000     0.656760000000     0.165270000000    -0.218006   
N41      N      0.352410000000     0.848690000000     0.008550000000    -0.220212   
N42      N      0.464260000000     0.864420000000     0.049410000000    -0.221277   
N43      N      0.436040000000     0.567780000000     0.426580000000    -0.221262   
N44      N      0.356770000000     0.637770000000     0.435160000000    -0.219597   
N45      N      0.211550000000     0.845060000000     0.052750000000    -0.220023   
N46      N      0.118470000000     0.883940000000     0.071850000000    -0.221896   
N47      N      0.436280000000     0.900930000000     0.286410000000    -0.222246   
N48      N      0.346410000000     0.867440000000     0.241760000000    -0.219186   
O129     O      0.444500000000     0.951930000000     0.251560000000    -0.384971   
O130     O      0.484890000000     0.913460000000     0.232900000000    -0.378138   
O131     O      0.455320000000     0.521240000000     0.467740000000    -0.391336   
O132     O      0.475360000000     0.568620000000     0.006770000000    -0.372009   
O133     O      0.464420000000     0.918660000000     0.036080000000    -0.380555   
O134     O      0.001050000000     0.894710000000     0.105670000000    -0.378793   
O135     O      0.437830000000     0.557460000000     0.199730000000    -0.372566   
O136     O      0.471770000000     0.589080000000     0.137670000000    -0.377628   
O137     O      0.400240000000     0.500070000000     0.201560000000    -0.345069   
O138     O      0.461030000000     0.516330000000     0.317940000000    -0.536129   
O139     O      0.417480000000     0.967850000000     0.006130000000    -0.521919   
O140     O      0.493240000000     0.958820000000     0.421840000000    -0.369601   
O141     O      0.472720000000     0.960370000000     0.135670000000    -0.499727   
O142     O      0.466480000000     0.518730000000     0.099710000000    -0.633315   
O143     O      0.060580000000     0.573410000000     0.241550000000    -0.371934   
O144     O      0.046550000000     0.595920000000     0.146760000000    -0.374593   
O145     O      0.103850000000     0.936120000000     0.056100000000    -0.382522   
O146     O      0.072320000000     0.904460000000     0.122120000000    -0.374161   
O147     O      0.093390000000     0.539250000000     0.494240000000    -0.378209   
O148     O      0.050790000000     0.575960000000     0.009100000000    -0.375287   
O149     O      0.092390000000     0.969080000000     0.277740000000    -0.379096   
O150     O      0.065260000000     0.922970000000     0.249020000000    -0.377623   
O151     O      0.122260000000     0.532340000000     0.237670000000    -0.526516   
O152     O      0.055250000000     0.524220000000     0.342150000000    -0.345898   
O153     O      0.140470000000     0.995990000000     0.057650000000    -0.348558   
O154     O      0.081430000000     0.974120000000     0.439460000000    -0.527559   
O155     O      0.068820000000     0.532000000000     0.121700000000    -0.631419   
O156     O      0.074720000000     0.973410000000     0.156460000000    -0.502981   
O157     O      0.009830000000     0.538900000000     0.200280000000    -0.49341    
O158     O      0.031530000000     0.953130000000     0.055070000000    -0.631608   
O159     O      0.015910000000     0.979530000000     0.238570000000    -0.63464    
O160     O      0.024820000000     0.512090000000     0.018430000000    -0.490055   
O161     O      0.343870000000     0.797620000000     0.474400000000    -0.386202   
O162     O      0.311500000000     0.838600000000     0.435320000000    -0.374964   
O163     O      0.324560000000     0.708300000000     0.194960000000    -0.383573   
O164     O      0.300060000000     0.667100000000     0.249390000000    -0.373958   
O165     O      0.332620000000     0.814830000000     0.237780000000    -0.386079   
O166     O      0.303950000000     0.848040000000     0.305170000000    -0.375786   
O167     O      0.346320000000     0.691210000000     0.436650000000    -0.380451   
O168     O      0.310810000000     0.657720000000     0.381930000000    -0.37432    
O169     O      0.388200000000     0.750420000000     0.399660000000    -0.349167   
O170     O      0.340220000000     0.735820000000     0.036350000000    -0.524392   
O171     O      0.368250000000     0.759400000000     0.205940000000    -0.52086    
O172     O      0.290530000000     0.773650000000     0.136380000000    -0.365386   
O173     O      0.319480000000     0.783980000000     0.343750000000    -0.497644   
O174     O      0.319050000000     0.722930000000     0.325810000000    -0.633938   
O175     O      0.219410000000     0.687510000000     0.485030000000    -0.382166   
O176     O      0.233100000000     0.656850000000     0.399510000000    -0.380061   
O177     O      0.188470000000     0.814570000000     0.270210000000    -0.38358    
O178     O      0.225250000000     0.847800000000     0.322550000000    -0.377821   
O179     O      0.191470000000     0.708630000000     0.227390000000    -0.371349   
O180     O      0.228590000000     0.668870000000     0.255790000000    -0.372788   
O181     O      0.217060000000     0.794580000000     0.015350000000    -0.387399   
O182     O      0.239100000000     0.836480000000     0.459280000000    -0.375208   
O183     O      0.165010000000     0.742470000000     0.468530000000    -0.531827   
O184     O      0.233540000000     0.734510000000     0.072210000000    -0.332792   
O185     O      0.148120000000     0.754030000000     0.305110000000    -0.352339   
O186     O      0.194650000000     0.771380000000     0.168560000000    -0.518614   
O187     O      0.216350000000     0.720690000000     0.358680000000    -0.633512   
O188     O      0.217100000000     0.782540000000     0.378000000000    -0.502506   
O189     O      0.277180000000     0.714480000000     0.434990000000    -0.500519   
O190     O      0.259380000000     0.790670000000     0.266940000000    -0.628827   
O191     O      0.277310000000     0.775670000000     0.453400000000    -0.636538   
O192     O      0.258640000000     0.729270000000     0.249240000000    -0.48738    
Zr25     Zr     0.462750000000     0.503230000000     0.207210000000     1.37632    
Zr26     Zr     0.477720000000     0.976040000000     0.028340000000     1.37073    
Zr27     Zr     0.063160000000     0.515280000000     0.229030000000     1.37045    
Zr28     Zr     0.078340000000     0.989540000000     0.049050000000     1.38209    
Zr29     Zr     0.027040000000     0.938090000000     0.163560000000     1.38253    
Zr30     Zr     0.014550000000     0.554150000000     0.091990000000     1.37662    
Zr31     Zr     0.327390000000     0.746530000000     0.426650000000     1.38583    
Zr32     Zr     0.309560000000     0.760310000000     0.243080000000     1.36841    
Zr33     Zr     0.226840000000     0.744130000000     0.459210000000     1.37983    
Zr34     Zr     0.208660000000     0.759100000000     0.276880000000     1.3842     
Zr35     Zr     0.268610000000     0.813120000000     0.369450000000     1.37566    
Zr36     Zr     0.267580000000     0.691950000000     0.333010000000     1.37632    
C121     C      0.456100000000     0.923060000000     0.756410000000     0.407205   
C122     C      0.456750000000     0.552080000000     0.968160000000     0.402295   
C123     C      0.477110000000     0.893740000000     0.563880000000     0.409192   
C124     C      0.445640000000     0.584620000000     0.673900000000     0.403603   
C125     C      0.057860000000     0.597600000000     0.704020000000     0.405373   
C126     C      0.097530000000     0.909210000000     0.583870000000     0.408296   
C127     C      0.079130000000     0.566630000000     0.983460000000     0.412177   
C128     C      0.088530000000     0.938320000000     0.779930000000     0.401914   
C129     C      0.335580000000     0.827520000000     0.970870000000     0.405926   
C130     C      0.318960000000     0.678140000000     0.704520000000     0.402845   
C131     C      0.326700000000     0.842630000000     0.762170000000     0.408388   
C132     C      0.337190000000     0.663190000000     0.917330000000     0.405674   
C133     C      0.220360000000     0.660570000000     0.955360000000     0.404159   
C134     C      0.198170000000     0.842580000000     0.788820000000     0.401684   
C135     C      0.202540000000     0.679510000000     0.724510000000     0.410118   
C136     C      0.222950000000     0.824710000000     0.507180000000     0.402687   
C137     C      0.150850000000     0.663410000000     0.662310000000     0.0158122  
C138     C      0.126370000000     0.643480000000     0.703120000000    -0.104873   
C139     C      0.088180000000     0.648920000000     0.688240000000     0.0120052  
C140     C      0.190590000000     0.607810000000     0.952120000000     0.0122962  
C141     C      0.151610000000     0.609360000000     0.963330000000    -0.105497   
C142     C      0.131150000000     0.584910000000     0.924520000000     0.0160541  
C143     C      0.186040000000     0.901320000000     0.788530000000     0.022104   
C144     C      0.170240000000     0.909680000000     0.853570000000    -0.103086   
C145     C      0.140470000000     0.933980000000     0.849320000000     0.0133973  
C146     C      0.329940000000     0.621810000000     0.670400000000     0.014018   
C147     C      0.363910000000     0.604020000000     0.658280000000    -0.104572   
C148     C      0.390500000000     0.608900000000     0.711650000000     0.0191463  
C149     C      0.430080000000     0.859650000000     0.522070000000     0.0221745  
C150     C      0.402940000000     0.861170000000     0.575210000000    -0.105485   
C151     C      0.372750000000     0.838450000000     0.563400000000     0.0160387  
C152     C      0.386410000000     0.641580000000     0.977820000000     0.0170407  
C153     C      0.406120000000     0.610000000000     0.986350000000    -0.108907   
C154     C      0.429230000000     0.602240000000     0.929230000000     0.0218688  
C155     C      0.149280000000     0.885970000000     0.532290000000     0.0234978  
C156     C      0.180580000000     0.895350000000     0.573000000000    -0.106667   
C157     C      0.213880000000     0.880120000000     0.548360000000     0.0161086  
C158     C      0.342120000000     0.900580000000     0.763800000000     0.0159164  
C159     C      0.376490000000     0.918720000000     0.760970000000    -0.105245   
C160     C      0.402180000000     0.908000000000     0.812930000000     0.0255748  
H289     H      0.445210000000     0.529270000000     0.588350000000     0.193929   
H290     H      0.035820000000     0.934790000000     0.528260000000     0.199067   
H291     H      0.087050000000     0.547670000000     0.618250000000     0.193458   
H292     H      0.014390000000     0.970850000000     0.780920000000     0.195657   
H293     H      0.471760000000     0.949660000000     0.904150000000     0.137256   
H294     H      0.095940000000     0.986110000000     0.910830000000     0.215833   
H295     H      0.145870000000     0.989750000000     0.601810000000     0.132121   
H296     H      0.137780000000     0.529600000000     0.702290000000     0.184352   
H297     H      0.035900000000     0.510160000000     0.854690000000     0.138737   
H298     H      0.475590000000     0.533180000000     0.834290000000     0.20675    
H299     H      0.395670000000     0.985900000000     0.664850000000     0.12478    
H300     H      0.400370000000     0.973790000000     0.537230000000     0.183362   
H301     H      0.130400000000     0.542020000000     0.776490000000     0.19898    
H302     H      0.446430000000     0.504100000000     0.846040000000     0.206183   
H303     H      0.410460000000     0.958510000000     0.966260000000     0.191226   
H304     H      0.068120000000     0.956160000000     0.924050000000     0.200727   
H305     H      0.338780000000     0.709730000000     0.815920000000     0.194917   
H306     H      0.256270000000     0.807290000000     0.735550000000     0.194225   
H307     H      0.196610000000     0.706630000000     0.860480000000     0.195769   
H308     H      0.280840000000     0.786160000000     0.993630000000     0.205575   
H309     H      0.309100000000     0.787290000000     0.618900000000     0.135834   
H310     H      0.173260000000     0.764010000000     0.650210000000     0.210951   
H311     H      0.145110000000     0.768530000000     0.841850000000     0.14097    
H312     H      0.152930000000     0.722370000000     0.963540000000     0.193053   
H313     H      0.255600000000     0.722740000000     0.576040000000     0.14507    
H314     H      0.361070000000     0.744130000000     0.555180000000     0.199013   
H315     H      0.388490000000     0.760210000000     0.856920000000     0.131453   
H316     H      0.385710000000     0.748280000000     0.730070000000     0.187916   
H317     H      0.152280000000     0.761950000000     0.976890000000     0.196416   
H318     H      0.324820000000     0.722630000000     0.561120000000     0.201834   
H319     H      0.374330000000     0.770140000000     0.666920000000     0.191506   
H320     H      0.210380000000     0.784220000000     0.643830000000     0.211274   
H321     H      0.143330000000     0.689150000000     0.663440000000     0.0374457  
H322     H      0.149350000000     0.655130000000     0.612330000000     0.0228198  
H323     H      0.070820000000     0.628860000000     0.775850000000     0.0984177  
H324     H      0.132650000000     0.617670000000     0.696220000000     0.049432   
H325     H      0.130900000000     0.649390000000     0.753890000000     0.0532837  
H326     H      0.083190000000     0.645490000000     0.636770000000     0.0356109  
H327     H      0.080880000000     0.673870000000     0.701050000000     0.0296236  
H328     H      0.196590000000     0.635630000000     0.679830000000     0.0969972  
H329     H      0.196160000000     0.608460000000     0.900430000000     0.0353207  
H330     H      0.200910000000     0.584980000000     0.971580000000     0.0284676  
H331     H      0.081900000000     0.608390000000     0.930570000000     0.100403   
H332     H      0.146490000000     0.605290000000     0.514600000000     0.0516022  
H333     H      0.142240000000     0.633820000000     0.951120000000     0.0492233  
H334     H      0.141530000000     0.560340000000     0.932100000000     0.0358253  
H335     H      0.133650000000     0.590620000000     0.873260000000     0.0217269  
H336     H      0.201170000000     0.636940000000     0.533800000000     0.0982586  
H337     H      0.214380000000     0.905230000000     0.789820000000     0.0321839  
H338     H      0.176090000000     0.917460000000     0.750770000000     0.0256269  
H339     H      0.106190000000     0.895910000000     0.819490000000     0.100559   
H340     H      0.161240000000     0.887700000000     0.878450000000     0.0574751  
H341     H      0.190660000000     0.920350000000     0.883880000000     0.0489971  
H342     H      0.149910000000     0.956220000000     0.826000000000     0.0322022  
H343     H      0.132500000000     0.940100000000     0.898260000000     0.0282358  
H344     H      0.155990000000     0.863810000000     0.744990000000     0.0994143  
H345     H      0.320020000000     0.614630000000     0.717750000000     0.0404896  
H346     H      0.310750000000     0.614130000000     0.634430000000     0.0286471  
H347     H      0.432380000000     0.632480000000     0.664810000000     0.098266   
H348     H      0.358570000000     0.577940000000     0.653440000000     0.05092    
H349     H      0.374460000000     0.612200000000     0.612190000000     0.0511596  
H350     H      0.388460000000     0.589280000000     0.747180000000     0.0366551  
H351     H      0.385600000000     0.631720000000     0.737380000000     0.0294003  
H352     H      0.349220000000     0.665620000000     0.627520000000     0.0944982  
H353     H      0.424440000000     0.877920000000     0.985080000000     0.0333929  
H354     H      0.429780000000     0.835820000000     0.998340000000     0.0295479  
H355     H      0.345970000000     0.873000000000     0.505130000000     0.0970386  
H356     H      0.414790000000     0.854060000000     0.621140000000     0.0509339  
H357     H      0.393520000000     0.886210000000     0.580750000000     0.0515078  
H358     H      0.355730000000     0.838320000000     0.605640000000     0.0192951  
H359     H      0.382950000000     0.813680000000     0.557590000000     0.027917   
H360     H      0.475990000000     0.844250000000     0.569540000000     0.100174   
H361     H      0.404140000000     0.660350000000     0.959350000000     0.0349481  
H362     H      0.376940000000     0.649660000000     0.524840000000     0.026638   
H363     H      0.420510000000     0.554260000000     0.896180000000     0.0960672  
H364     H      0.422590000000     0.611890000000     0.529270000000     0.0579731  
H365     H      0.387440000000     0.590240000000     0.994930000000     0.0514767  
H366     H      0.453810000000     0.615840000000     0.932440000000     0.0363468  
H367     H      0.416340000000     0.609490000000     0.884370000000     0.0277357  
H368     H      0.349520000000     0.614840000000     0.920060000000     0.0987581  
H369     H      0.152980000000     0.862260000000     0.509170000000     0.027299   
H370     H      0.145780000000     0.903590000000     0.993300000000     0.0311718  
H371     H      0.200520000000     0.835290000000     0.593630000000     0.0921433  
H372     H      0.183310000000     0.921900000000     0.573030000000     0.0537708  
H373     H      0.176730000000     0.887720000000     0.623040000000     0.0555026  
H374     H      0.235880000000     0.888460000000     0.577700000000     0.0248781  
H375     H      0.218210000000     0.888220000000     0.998770000000     0.0363165  
H376     H      0.113770000000     0.862170000000     0.594930000000     0.0997584  
H377     H      0.323210000000     0.912820000000     0.732550000000     0.0246534  
H378     H      0.332040000000     0.901410000000     0.813130000000     0.0375675  
H379     H      0.445240000000     0.877310000000     0.789670000000     0.10012    
H380     H      0.387700000000     0.915820000000     0.712770000000     0.057497   
H381     H      0.371120000000     0.944730000000     0.767150000000     0.0564743  
H382     H      0.392710000000     0.886260000000     0.838070000000     0.0278324  
H383     H      0.404620000000     0.927130000000     0.849360000000     0.0177202  
H384     H      0.364460000000     0.862980000000     0.706060000000     0.0942684  
N49      N      0.068110000000     0.626470000000     0.726720000000    -0.217265   
N50      N      0.186000000000     0.658530000000     0.685810000000    -0.217626   
N51      N      0.094770000000     0.587200000000     0.942680000000    -0.216932   
N52      N      0.206620000000     0.634800000000     0.985410000000    -0.218898   
N53      N      0.110800000000     0.920550000000     0.815340000000    -0.21831    
N54      N      0.178470000000     0.868030000000     0.771010000000    -0.220083   
N55      N      0.425150000000     0.610480000000     0.684610000000    -0.21927    
N56      N      0.334590000000     0.656760000000     0.665270000000    -0.218007   
N57      N      0.352410000000     0.848690000000     0.508550000000    -0.220259   
N58      N      0.464260000000     0.864420000000     0.549410000000    -0.221276   
N59      N      0.436040000000     0.567780000000     0.926580000000    -0.221257   
N60      N      0.356770000000     0.637770000000     0.935160000000    -0.219622   
N61      N      0.211550000000     0.845060000000     0.552740000000    -0.220013   
N62      N      0.118470000000     0.883940000000     0.571840000000    -0.221883   
N63      N      0.436280000000     0.900930000000     0.786410000000    -0.222238   
N64      N      0.346410000000     0.867440000000     0.741760000000    -0.21919    
O193     O      0.444500000000     0.951930000000     0.751560000000    -0.38499    
O194     O      0.484890000000     0.913460000000     0.732910000000    -0.378178   
O195     O      0.455320000000     0.521240000000     0.967740000000    -0.391352   
O196     O      0.475360000000     0.568620000000     0.506770000000    -0.37207    
O197     O      0.464420000000     0.918660000000     0.536090000000    -0.380604   
O198     O      0.001050000000     0.894710000000     0.605670000000    -0.378809   
O199     O      0.437830000000     0.557460000000     0.699730000000    -0.372546   
O200     O      0.471770000000     0.589080000000     0.637660000000    -0.377599   
O201     O      0.400240000000     0.500070000000     0.701560000000    -0.345065   
O202     O      0.461030000000     0.516330000000     0.817940000000    -0.536115   
O203     O      0.417480000000     0.967850000000     0.506130000000    -0.521997   
O204     O      0.493240000000     0.958820000000     0.921840000000    -0.369631   
O205     O      0.472720000000     0.960370000000     0.635670000000    -0.499725   
O206     O      0.466480000000     0.518730000000     0.599700000000    -0.633345   
O207     O      0.060580000000     0.573410000000     0.741550000000    -0.371934   
O208     O      0.046550000000     0.595920000000     0.646760000000    -0.374595   
O209     O      0.103850000000     0.936120000000     0.556100000000    -0.382579   
O210     O      0.072320000000     0.904460000000     0.622120000000    -0.374125   
O211     O      0.093390000000     0.539250000000     0.994240000000    -0.378228   
O212     O      0.050790000000     0.575960000000     0.509110000000    -0.375354   
O213     O      0.092390000000     0.969080000000     0.777730000000    -0.379098   
O214     O      0.065260000000     0.922970000000     0.749020000000    -0.377611   
O215     O      0.122260000000     0.532340000000     0.737670000000    -0.526486   
O216     O      0.055250000000     0.524220000000     0.842150000000    -0.345903   
O217     O      0.140470000000     0.995990000000     0.557640000000    -0.34858    
O218     O      0.081430000000     0.974120000000     0.939460000000    -0.527731   
O219     O      0.068820000000     0.532000000000     0.621700000000    -0.6314     
O220     O      0.074720000000     0.973410000000     0.656460000000    -0.502961   
O221     O      0.009830000000     0.538900000000     0.700280000000    -0.49341    
O222     O      0.031530000000     0.953130000000     0.555070000000    -0.631536   
O223     O      0.015910000000     0.979530000000     0.738570000000    -0.634634   
O224     O      0.024820000000     0.512090000000     0.518430000000    -0.49001    
O225     O      0.343870000000     0.797620000000     0.974400000000    -0.386209   
O226     O      0.311500000000     0.838600000000     0.935320000000    -0.374964   
O227     O      0.324560000000     0.708300000000     0.694960000000    -0.383571   
O228     O      0.300060000000     0.667100000000     0.749390000000    -0.373999   
O229     O      0.332620000000     0.814830000000     0.737780000000    -0.38608    
O230     O      0.303950000000     0.848040000000     0.805170000000    -0.37579    
O231     O      0.346320000000     0.691200000000     0.936650000000    -0.380539   
O232     O      0.310810000000     0.657720000000     0.881930000000    -0.374471   
O233     O      0.388200000000     0.750420000000     0.899660000000    -0.349184   
O234     O      0.340220000000     0.735820000000     0.536340000000    -0.524327   
O235     O      0.368250000000     0.759400000000     0.705930000000    -0.520887   
O236     O      0.290530000000     0.773650000000     0.636380000000    -0.365399   
O237     O      0.319480000000     0.783980000000     0.843750000000    -0.497631   
O238     O      0.319050000000     0.722930000000     0.825810000000    -0.633882   
O239     O      0.219410000000     0.687510000000     0.985030000000    -0.38221    
O240     O      0.233100000000     0.656850000000     0.899510000000    -0.380127   
O241     O      0.188470000000     0.814570000000     0.770210000000    -0.383561   
O242     O      0.225250000000     0.847800000000     0.822560000000    -0.377788   
O243     O      0.191470000000     0.708630000000     0.727380000000    -0.37133    
O244     O      0.228590000000     0.668870000000     0.755790000000    -0.372819   
O245     O      0.217060000000     0.794580000000     0.515350000000    -0.387434   
O246     O      0.239100000000     0.836480000000     0.959280000000    -0.375261   
O247     O      0.165010000000     0.742470000000     0.968520000000    -0.531828   
O248     O      0.233540000000     0.734500000000     0.572210000000    -0.332877   
O249     O      0.148120000000     0.754030000000     0.805110000000    -0.352401   
O250     O      0.194650000000     0.771380000000     0.668560000000    -0.518614   
O251     O      0.216350000000     0.720690000000     0.858680000000    -0.633459   
O252     O      0.217100000000     0.782540000000     0.877990000000    -0.502511   
O253     O      0.277180000000     0.714480000000     0.934990000000    -0.500496   
O254     O      0.259380000000     0.790670000000     0.766940000000    -0.628834   
O255     O      0.277310000000     0.775670000000     0.953400000000    -0.636526   
O256     O      0.258640000000     0.729260000000     0.749240000000    -0.487295   
Zr37     Zr     0.462750000000     0.503230000000     0.707210000000     1.37619    
Zr38     Zr     0.477720000000     0.976040000000     0.528340000000     1.37071    
Zr39     Zr     0.063160000000     0.515280000000     0.729030000000     1.37044    
Zr40     Zr     0.078350000000     0.989540000000     0.549050000000     1.38199    
Zr41     Zr     0.027040000000     0.938090000000     0.663560000000     1.38252    
Zr42     Zr     0.014550000000     0.554150000000     0.591990000000     1.37667    
Zr43     Zr     0.327390000000     0.746530000000     0.926650000000     1.38571    
Zr44     Zr     0.309560000000     0.760310000000     0.743080000000     1.36835    
Zr45     Zr     0.226840000000     0.744130000000     0.959210000000     1.37975    
Zr46     Zr     0.208660000000     0.759100000000     0.776880000000     1.38419    
Zr47     Zr     0.268610000000     0.813120000000     0.869450000000     1.37567    
Zr48     Zr     0.267580000000     0.691940000000     0.833010000000     1.3764     
C161     C      0.956100000000     0.423060000000     0.256420000000     0.406979   
C162     C      0.956750000000     0.052080000000     0.468160000000     0.402314   
C163     C      0.977110000000     0.393740000000     0.063880000000     0.409267   
C164     C      0.945640000000     0.084620000000     0.173900000000     0.403596   
C165     C      0.557870000000     0.097600000000     0.204020000000     0.405454   
C166     C      0.597530000000     0.409210000000     0.083880000000     0.408353   
C167     C      0.579130000000     0.066630000000     0.483460000000     0.412329   
C168     C      0.588530000000     0.438320000000     0.279930000000     0.401877   
C169     C      0.835580000000     0.327520000000     0.470870000000     0.40605    
C170     C      0.818960000000     0.178130000000     0.204520000000     0.402884   
C171     C      0.826700000000     0.342630000000     0.262170000000     0.408384   
C172     C      0.837190000000     0.163180000000     0.417340000000     0.405417   
C173     C      0.720360000000     0.160570000000     0.455360000000     0.404142   
C174     C      0.698170000000     0.342580000000     0.288820000000     0.401836   
C175     C      0.702540000000     0.179510000000     0.224510000000     0.410088   
C176     C      0.722960000000     0.324710000000     0.007180000000     0.402768   
C177     C      0.650850000000     0.163410000000     0.162310000000     0.0158231  
C178     C      0.626380000000     0.143490000000     0.203120000000    -0.104888   
C179     C      0.588180000000     0.148910000000     0.188240000000     0.0120404  
C180     C      0.690590000000     0.107800000000     0.452120000000     0.0121413  
C181     C      0.651610000000     0.109350000000     0.463330000000    -0.105252   
C182     C      0.631150000000     0.084910000000     0.424510000000     0.0159392  
C183     C      0.686040000000     0.401310000000     0.288530000000     0.022227   
C184     C      0.670240000000     0.409690000000     0.353570000000    -0.10319    
C185     C      0.640470000000     0.433970000000     0.349320000000     0.0135027  
C186     C      0.829940000000     0.121810000000     0.170400000000     0.0140324  
C187     C      0.863910000000     0.104020000000     0.158280000000    -0.104585   
C188     C      0.890500000000     0.108900000000     0.211650000000     0.0191557  
C189     C      0.930080000000     0.359640000000     0.022070000000     0.022301   
C190     C      0.902940000000     0.361170000000     0.075210000000    -0.105513   
C191     C      0.872750000000     0.338450000000     0.063410000000     0.0160488  
C192     C      0.886410000000     0.141580000000     0.477820000000     0.0171204  
C193     C      0.906120000000     0.110000000000     0.486350000000    -0.108848   
C194     C      0.929230000000     0.102240000000     0.429230000000     0.0218569  
C195     C      0.649280000000     0.385970000000     0.032290000000     0.0235331  
C196     C      0.680580000000     0.395350000000     0.073000000000    -0.106687   
C197     C      0.713880000000     0.380120000000     0.048360000000     0.0161777  
C198     C      0.842120000000     0.400580000000     0.263810000000     0.0159089  
C199     C      0.876490000000     0.418720000000     0.260970000000    -0.105262   
C200     C      0.902180000000     0.408000000000     0.312930000000     0.0256002  
H385     H      0.945210000000     0.029270000000     0.088350000000     0.193961   
H386     H      0.535820000000     0.434790000000     0.028260000000     0.199083   
H387     H      0.587050000000     0.047660000000     0.118250000000     0.19363    
H388     H      0.514390000000     0.470850000000     0.280920000000     0.195774   
H389     H      0.971770000000     0.449660000000     0.404150000000     0.137453   
H390     H      0.595940000000     0.486110000000     0.410830000000     0.216094   
H391     H      0.645870000000     0.489750000000     0.101810000000     0.132328   
H392     H      0.637790000000     0.029610000000     0.202290000000     0.184724   
H393     H      0.535900000000     0.010160000000     0.354690000000     0.139085   
H394     H      0.975600000000     0.033180000000     0.334290000000     0.20654    
H395     H      0.895680000000     0.485900000000     0.164850000000     0.125603   
H396     H      0.900370000000     0.473790000000     0.037230000000     0.183539   
H397     H      0.630400000000     0.042020000000     0.276490000000     0.199226   
H398     H      0.946430000000     0.004100000000     0.346040000000     0.206594   
H399     H      0.910460000000     0.458510000000     0.466260000000     0.19149    
H400     H      0.568120000000     0.456160000000     0.424050000000     0.200804   
H401     H      0.838770000000     0.209730000000     0.315920000000     0.195122   
H402     H      0.756280000000     0.307290000000     0.235550000000     0.194264   
H403     H      0.696610000000     0.206630000000     0.360480000000     0.195775   
H404     H      0.780840000000     0.286160000000     0.493630000000     0.205583   
H405     H      0.809100000000     0.287300000000     0.118900000000     0.135756   
H406     H      0.673270000000     0.264010000000     0.150210000000     0.211185   
H407     H      0.645110000000     0.268530000000     0.341860000000     0.140897   
H408     H      0.652940000000     0.222370000000     0.463540000000     0.193054   
H409     H      0.755600000000     0.222740000000     0.076050000000     0.145087   
H410     H      0.861070000000     0.244130000000     0.055180000000     0.199118   
H411     H      0.888490000000     0.260210000000     0.356920000000     0.131453   
H412     H      0.885710000000     0.248290000000     0.230070000000     0.188059   
H413     H      0.652280000000     0.261940000000     0.476890000000     0.196843   
H414     H      0.824830000000     0.222630000000     0.061120000000     0.202056   
H415     H      0.874330000000     0.270140000000     0.166920000000     0.19145    
H416     H      0.710380000000     0.284210000000     0.143830000000     0.21148    
H417     H      0.643330000000     0.189150000000     0.163450000000     0.0374392  
H418     H      0.649350000000     0.155130000000     0.112320000000     0.0228236  
H419     H      0.570820000000     0.128850000000     0.275850000000     0.0984285  
H420     H      0.632650000000     0.117670000000     0.196230000000     0.0494205  
H421     H      0.630900000000     0.149390000000     0.253890000000     0.0532923  
H422     H      0.583190000000     0.145490000000     0.136760000000     0.0355905  
H423     H      0.580880000000     0.173860000000     0.201050000000     0.0296183  
H424     H      0.696590000000     0.135640000000     0.179830000000     0.0971631  
H425     H      0.696160000000     0.108460000000     0.400430000000     0.0354237  
H426     H      0.700910000000     0.084970000000     0.471580000000     0.0286718  
H427     H      0.581900000000     0.108380000000     0.430570000000     0.100478   
H428     H      0.646490000000     0.105290000000     0.014600000000     0.0516854  
H429     H      0.642240000000     0.133820000000     0.451120000000     0.0491474  
H430     H      0.641530000000     0.060350000000     0.432110000000     0.0360475  
H431     H      0.633650000000     0.090620000000     0.373270000000     0.0217845  
H432     H      0.701170000000     0.136940000000     0.033800000000     0.0983287  
H433     H      0.714380000000     0.405230000000     0.289820000000     0.0321982  
H434     H      0.676090000000     0.417470000000     0.250770000000     0.0256417  
H435     H      0.606190000000     0.395910000000     0.319490000000     0.10056    
H436     H      0.661250000000     0.387700000000     0.378440000000     0.0574916  
H437     H      0.690660000000     0.420350000000     0.383880000000     0.0490885  
H438     H      0.649920000000     0.456220000000     0.326000000000     0.0323068  
H439     H      0.632500000000     0.440100000000     0.398250000000     0.0282518  
H440     H      0.655990000000     0.363810000000     0.244990000000     0.0994164  
H441     H      0.820020000000     0.114630000000     0.217760000000     0.0405394  
H442     H      0.810750000000     0.114130000000     0.134430000000     0.0287236  
H443     H      0.932380000000     0.132480000000     0.164810000000     0.0982579  
H444     H      0.858570000000     0.077940000000     0.153440000000     0.0510459  
H445     H      0.874460000000     0.112200000000     0.112190000000     0.0511911  
H446     H      0.888460000000     0.089290000000     0.247180000000     0.0366907  
H447     H      0.885600000000     0.131730000000     0.237380000000     0.0293953  
H448     H      0.849220000000     0.165620000000     0.127520000000     0.0945093  
H449     H      0.924440000000     0.377920000000     0.485080000000     0.0334708  
H450     H      0.929780000000     0.335820000000     0.498330000000     0.0296197  
H451     H      0.845980000000     0.373000000000     0.005130000000     0.0970665  
H452     H      0.914790000000     0.354060000000     0.121140000000     0.0509345  
H453     H      0.893520000000     0.386210000000     0.080750000000     0.0515328  
H454     H      0.855730000000     0.338320000000     0.105640000000     0.0192969  
H455     H      0.882950000000     0.313680000000     0.057600000000     0.0279278  
H456     H      0.975980000000     0.344250000000     0.069540000000     0.100217   
H457     H      0.904140000000     0.160350000000     0.459360000000     0.0349339  
H458     H      0.876940000000     0.149660000000     0.024840000000     0.0266861  
H459     H      0.920510000000     0.054260000000     0.396180000000     0.0961653  
H460     H      0.922590000000     0.111890000000     0.029270000000     0.0580319  
H461     H      0.887440000000     0.090240000000     0.494940000000     0.0515633  
H462     H      0.953810000000     0.115830000000     0.432450000000     0.0363727  
H463     H      0.916340000000     0.109490000000     0.384370000000     0.0277497  
H464     H      0.849520000000     0.114840000000     0.420060000000     0.0988316  
H465     H      0.652980000000     0.362270000000     0.009180000000     0.0273047  
H466     H      0.645780000000     0.403590000000     0.493290000000     0.0312269  
H467     H      0.700520000000     0.335280000000     0.093630000000     0.0921101  
H468     H      0.683310000000     0.421900000000     0.073040000000     0.0538403  
H469     H      0.676730000000     0.387720000000     0.123040000000     0.0555202  
H470     H      0.735880000000     0.388460000000     0.077700000000     0.024915   
H471     H      0.718220000000     0.388220000000     0.498770000000     0.0364018  
H472     H      0.613770000000     0.362170000000     0.094930000000     0.0997756  
H473     H      0.823210000000     0.412820000000     0.232540000000     0.024726   
H474     H      0.832040000000     0.401410000000     0.313130000000     0.0376136  
H475     H      0.945240000000     0.377320000000     0.289670000000     0.100183   
H476     H      0.887700000000     0.415820000000     0.212770000000     0.057531   
H477     H      0.871120000000     0.444730000000     0.267150000000     0.0566391  
H478     H      0.892710000000     0.386260000000     0.338070000000     0.0278314  
H479     H      0.904620000000     0.427140000000     0.349360000000     0.0177954  
H480     H      0.864460000000     0.362980000000     0.206060000000     0.0942698  
N65      N      0.568110000000     0.126470000000     0.226720000000    -0.217325   
N66      N      0.686010000000     0.158530000000     0.185810000000    -0.217728   
N67      N      0.594770000000     0.087200000000     0.442680000000    -0.216973   
N68      N      0.706620000000     0.134800000000     0.485410000000    -0.218812   
N69      N      0.610800000000     0.420550000000     0.315330000000    -0.218319   
N70      N      0.678470000000     0.368030000000     0.271010000000    -0.22014    
N71      N      0.925150000000     0.110480000000     0.184610000000    -0.219272   
N72      N      0.834590000000     0.156760000000     0.165270000000    -0.218076   
N73      N      0.852420000000     0.348690000000     0.008550000000    -0.220176   
N74      N      0.964260000000     0.364420000000     0.049410000000    -0.221323   
N75      N      0.936040000000     0.067780000000     0.426580000000    -0.221235   
N76      N      0.856770000000     0.137770000000     0.435160000000    -0.219658   
N77      N      0.711560000000     0.345060000000     0.052750000000    -0.21998    
N78      N      0.618470000000     0.383940000000     0.071850000000    -0.221906   
N79      N      0.936280000000     0.400930000000     0.286410000000    -0.222279   
N80      N      0.846410000000     0.367440000000     0.241760000000    -0.219185   
O257     O      0.944510000000     0.451930000000     0.251560000000    -0.384539   
O258     O      0.984900000000     0.413460000000     0.232900000000    -0.378007   
O259     O      0.955320000000     0.021240000000     0.467740000000    -0.390813   
O260     O      0.975360000000     0.068620000000     0.006770000000    -0.371914   
O261     O      0.964420000000     0.418660000000     0.036080000000    -0.380752   
O262     O      0.501050000000     0.394710000000     0.105670000000    -0.378799   
O263     O      0.937830000000     0.057460000000     0.199730000000    -0.372682   
O264     O      0.971780000000     0.089080000000     0.137670000000    -0.377639   
O265     O      0.900240000000     0.000060000000     0.201560000000    -0.344132   
O266     O      0.961030000000     0.016320000000     0.317940000000    -0.535954   
O267     O      0.917480000000     0.467850000000     0.006130000000    -0.521907   
O268     O      0.993240000000     0.458820000000     0.421840000000    -0.369549   
O269     O      0.972720000000     0.460370000000     0.135670000000    -0.499413   
O270     O      0.966480000000     0.018730000000     0.099710000000    -0.632962   
O271     O      0.560570000000     0.073410000000     0.241550000000    -0.372166   
O272     O      0.546550000000     0.095920000000     0.146760000000    -0.37467    
O273     O      0.603850000000     0.436120000000     0.056100000000    -0.382615   
O274     O      0.572320000000     0.404460000000     0.122120000000    -0.374201   
O275     O      0.593390000000     0.039250000000     0.494240000000    -0.377711   
O276     O      0.550800000000     0.075960000000     0.009100000000    -0.375399   
O277     O      0.592390000000     0.469080000000     0.277740000000    -0.378674   
O278     O      0.565260000000     0.422970000000     0.249020000000    -0.377584   
O279     O      0.622270000000     0.032340000000     0.237670000000    -0.52666    
O280     O      0.555250000000     0.024220000000     0.342150000000    -0.3458     
O281     O      0.640470000000     0.495990000000     0.057650000000    -0.348334   
O282     O      0.581430000000     0.474120000000     0.439460000000    -0.527686   
O283     O      0.568820000000     0.032000000000     0.121700000000    -0.631256   
O284     O      0.574720000000     0.473410000000     0.156460000000    -0.502691   
O285     O      0.509820000000     0.038910000000     0.200280000000    -0.493404   
O286     O      0.531530000000     0.453130000000     0.055070000000    -0.631681   
O287     O      0.515910000000     0.479530000000     0.238570000000    -0.633982   
O288     O      0.524810000000     0.012090000000     0.018430000000    -0.48924    
O289     O      0.843870000000     0.297620000000     0.474400000000    -0.386233   
O290     O      0.811500000000     0.338590000000     0.435320000000    -0.375045   
O291     O      0.824560000000     0.208300000000     0.194960000000    -0.383484   
O292     O      0.800060000000     0.167110000000     0.249390000000    -0.374064   
O293     O      0.832620000000     0.314830000000     0.237780000000    -0.386084   
O294     O      0.803950000000     0.348040000000     0.305170000000    -0.375781   
O295     O      0.846320000000     0.191210000000     0.436650000000    -0.380373   
O296     O      0.810810000000     0.157720000000     0.381930000000    -0.374302   
O297     O      0.888200000000     0.250420000000     0.399660000000    -0.349258   
O298     O      0.840220000000     0.235820000000     0.036350000000    -0.524558   
O299     O      0.868250000000     0.259400000000     0.205940000000    -0.520994   
O300     O      0.790530000000     0.273650000000     0.136380000000    -0.365325   
O301     O      0.819480000000     0.283980000000     0.343750000000    -0.497634   
O302     O      0.819050000000     0.222930000000     0.325810000000    -0.634106   
O303     O      0.719420000000     0.187510000000     0.485030000000    -0.382185   
O304     O      0.733100000000     0.156850000000     0.399510000000    -0.380041   
O305     O      0.688480000000     0.314570000000     0.270210000000    -0.383644   
O306     O      0.725250000000     0.347800000000     0.322550000000    -0.377834   
O307     O      0.691470000000     0.208630000000     0.227390000000    -0.371358   
O308     O      0.728590000000     0.168860000000     0.255790000000    -0.37269    
O309     O      0.717060000000     0.294580000000     0.015350000000    -0.387418   
O310     O      0.739100000000     0.336480000000     0.459280000000    -0.375267   
O311     O      0.665010000000     0.242480000000     0.468530000000    -0.532207   
O312     O      0.733540000000     0.234500000000     0.072210000000    -0.332877   
O313     O      0.648120000000     0.254030000000     0.305110000000    -0.35235    
O314     O      0.694650000000     0.271380000000     0.168560000000    -0.519023   
O315     O      0.716350000000     0.220690000000     0.358680000000    -0.633527   
O316     O      0.717100000000     0.282540000000     0.378000000000    -0.502507   
O317     O      0.777180000000     0.214480000000     0.434990000000    -0.500454   
O318     O      0.759380000000     0.290670000000     0.266940000000    -0.628872   
O319     O      0.777310000000     0.275670000000     0.453400000000    -0.63647    
O320     O      0.758640000000     0.229260000000     0.249240000000    -0.487352   
Zr49     Zr     0.962740000000     0.003230000000     0.207210000000     1.37798    
Zr50     Zr     0.977720000000     0.476030000000     0.028340000000     1.37214    
Zr51     Zr     0.563170000000     0.015290000000     0.229030000000     1.37198    
Zr52     Zr     0.578340000000     0.489540000000     0.049050000000     1.3834     
Zr53     Zr     0.527040000000     0.438090000000     0.163560000000     1.38267    
Zr54     Zr     0.514550000000     0.054160000000     0.091990000000     1.37696    
Zr55     Zr     0.827400000000     0.246530000000     0.426650000000     1.38586    
Zr56     Zr     0.809560000000     0.260310000000     0.243080000000     1.36835    
Zr57     Zr     0.726840000000     0.244130000000     0.459210000000     1.37985    
Zr58     Zr     0.708660000000     0.259100000000     0.276880000000     1.38421    
Zr59     Zr     0.768610000000     0.313120000000     0.369450000000     1.37573    
Zr60     Zr     0.767580000000     0.191950000000     0.333010000000     1.37641    
C201     C      0.956100000000     0.423060000000     0.756410000000     0.40694    
C202     C      0.956740000000     0.052080000000     0.968160000000     0.402184   
C203     C      0.977110000000     0.393740000000     0.563880000000     0.4093     
C204     C      0.945640000000     0.084620000000     0.673900000000     0.403524   
C205     C      0.557870000000     0.097600000000     0.704020000000     0.405417   
C206     C      0.597530000000     0.409210000000     0.583870000000     0.408317   
C207     C      0.579130000000     0.066630000000     0.983460000000     0.41228    
C208     C      0.588530000000     0.438320000000     0.779930000000     0.401702   
C209     C      0.835580000000     0.327520000000     0.970870000000     0.40586    
C210     C      0.818960000000     0.178130000000     0.704520000000     0.40289    
C211     C      0.826700000000     0.342630000000     0.762170000000     0.408247   
C212     C      0.837190000000     0.163180000000     0.917330000000     0.405407   
C213     C      0.720360000000     0.160570000000     0.955360000000     0.404134   
C214     C      0.698170000000     0.342580000000     0.788820000000     0.401769   
C215     C      0.702540000000     0.179510000000     0.724510000000     0.410079   
C216     C      0.722960000000     0.324710000000     0.507180000000     0.402728   
C217     C      0.650850000000     0.163410000000     0.662310000000     0.0157933  
C218     C      0.626380000000     0.143490000000     0.703120000000    -0.104813   
C219     C      0.588180000000     0.148910000000     0.688240000000     0.012045   
C220     C      0.690590000000     0.107800000000     0.952120000000     0.0121752  
C221     C      0.651610000000     0.109350000000     0.963330000000    -0.105368   
C222     C      0.631150000000     0.084910000000     0.924520000000     0.0160053  
C223     C      0.686040000000     0.401310000000     0.788530000000     0.022179   
C224     C      0.670230000000     0.409690000000     0.853570000000    -0.10314    
C225     C      0.640470000000     0.433970000000     0.849320000000     0.0135301  
C226     C      0.829930000000     0.121810000000     0.670400000000     0.0139623  
C227     C      0.863910000000     0.104020000000     0.658280000000    -0.104545   
C228     C      0.890500000000     0.108900000000     0.711650000000     0.0191408  
C229     C      0.930080000000     0.359650000000     0.522070000000     0.0221868  
C230     C      0.902940000000     0.361170000000     0.575210000000    -0.105507   
C231     C      0.872750000000     0.338450000000     0.563400000000     0.016083   
C232     C      0.886410000000     0.141580000000     0.977820000000     0.0170591  
C233     C      0.906120000000     0.110000000000     0.986350000000    -0.108926   
C234     C      0.929230000000     0.102240000000     0.929230000000     0.0218737  
C235     C      0.649280000000     0.385970000000     0.532290000000     0.0235048  
C236     C      0.680580000000     0.395350000000     0.573000000000    -0.106736   
C237     C      0.713880000000     0.380120000000     0.548360000000     0.016114   
C238     C      0.842120000000     0.400580000000     0.763800000000     0.0159118  
C239     C      0.876490000000     0.418720000000     0.760970000000    -0.105271   
C240     C      0.902180000000     0.408000000000     0.812930000000     0.0255927  
H481     H      0.945200000000     0.029270000000     0.588350000000     0.193992   
H482     H      0.535820000000     0.434790000000     0.528260000000     0.199065   
H483     H      0.587050000000     0.047660000000     0.618250000000     0.193625   
H484     H      0.514390000000     0.470850000000     0.780920000000     0.195773   
H485     H      0.971770000000     0.449660000000     0.904150000000     0.137598   
H486     H      0.595940000000     0.486110000000     0.910830000000     0.216091   
H487     H      0.645870000000     0.489750000000     0.601810000000     0.132249   
H488     H      0.637790000000     0.029610000000     0.702290000000     0.184722   
H489     H      0.535900000000     0.010160000000     0.854690000000     0.139073   
H490     H      0.975590000000     0.033170000000     0.834290000000     0.206855   
H491     H      0.895680000000     0.485900000000     0.664850000000     0.125599   
H492     H      0.900370000000     0.473790000000     0.537230000000     0.183508   
H493     H      0.630400000000     0.042020000000     0.776490000000     0.199223   
H494     H      0.946430000000     0.004100000000     0.846040000000     0.206687   
H495     H      0.910460000000     0.458510000000     0.966260000000     0.191347   
H496     H      0.568120000000     0.456160000000     0.924050000000     0.200798   
H497     H      0.838780000000     0.209730000000     0.815920000000     0.194941   
H498     H      0.756280000000     0.307290000000     0.735550000000     0.194257   
H499     H      0.696610000000     0.206630000000     0.860480000000     0.195777   
H500     H      0.780840000000     0.286160000000     0.993630000000     0.205566   
H501     H      0.809100000000     0.287300000000     0.618900000000     0.135741   
H502     H      0.673270000000     0.264020000000     0.650210000000     0.211252   
H503     H      0.645110000000     0.268530000000     0.841850000000     0.14096    
H504     H      0.652940000000     0.222370000000     0.963540000000     0.193055   
H505     H      0.755600000000     0.222740000000     0.576040000000     0.145078   
H506     H      0.861060000000     0.244130000000     0.555180000000     0.199234   
H507     H      0.888500000000     0.260210000000     0.856920000000     0.13146    
H508     H      0.885710000000     0.248290000000     0.730070000000     0.188017   
H509     H      0.652280000000     0.261940000000     0.976890000000     0.196802   
H510     H      0.824830000000     0.222630000000     0.561120000000     0.202041   
H511     H      0.874330000000     0.270140000000     0.666920000000     0.191524   
H512     H      0.710380000000     0.284210000000     0.643830000000     0.211497   
H513     H      0.643330000000     0.189150000000     0.663440000000     0.037441   
H514     H      0.649350000000     0.155130000000     0.612330000000     0.0228225  
H515     H      0.570820000000     0.128850000000     0.775850000000     0.0984265  
H516     H      0.632650000000     0.117660000000     0.696220000000     0.0493776  
H517     H      0.630900000000     0.149390000000     0.753890000000     0.0532793  
H518     H      0.583190000000     0.145490000000     0.636770000000     0.035583   
H519     H      0.580880000000     0.173860000000     0.701050000000     0.0296081  
H520     H      0.696590000000     0.135640000000     0.679830000000     0.0971595  
H521     H      0.696160000000     0.108460000000     0.900430000000     0.0354159  
H522     H      0.700910000000     0.084970000000     0.971580000000     0.0286427  
H523     H      0.581900000000     0.108380000000     0.930570000000     0.100465   
H524     H      0.646490000000     0.105290000000     0.514600000000     0.0516141  
H525     H      0.642240000000     0.133820000000     0.951120000000     0.049161   
H526     H      0.641530000000     0.060350000000     0.932100000000     0.0360162  
H527     H      0.633650000000     0.090620000000     0.873260000000     0.0217674  
H528     H      0.701170000000     0.136940000000     0.533800000000     0.0982758  
H529     H      0.714380000000     0.405230000000     0.789820000000     0.0322048  
H530     H      0.676090000000     0.417460000000     0.750770000000     0.0256552  
H531     H      0.606190000000     0.395910000000     0.819490000000     0.100556   
H532     H      0.661250000000     0.387700000000     0.878450000000     0.0574735  
H533     H      0.690660000000     0.420350000000     0.883880000000     0.0490513  
H534     H      0.649920000000     0.456220000000     0.826000000000     0.0322944  
H535     H      0.632500000000     0.440100000000     0.898260000000     0.0282365  
H536     H      0.655990000000     0.363810000000     0.744990000000     0.0994122  
H537     H      0.820020000000     0.114630000000     0.717750000000     0.0405575  
H538     H      0.810750000000     0.114130000000     0.634430000000     0.0287303  
H539     H      0.932380000000     0.132480000000     0.664810000000     0.0982519  
H540     H      0.858570000000     0.077940000000     0.653440000000     0.0510318  
H541     H      0.874460000000     0.112200000000     0.612190000000     0.0511745  
H542     H      0.888460000000     0.089290000000     0.747180000000     0.0366939  
H543     H      0.885600000000     0.131730000000     0.737380000000     0.0294009  
H544     H      0.849210000000     0.165620000000     0.627520000000     0.0945396  
H545     H      0.924440000000     0.377920000000     0.985080000000     0.0334033  
H546     H      0.929780000000     0.335830000000     0.998340000000     0.0295428  
H547     H      0.845980000000     0.373000000000     0.505130000000     0.097047   
H548     H      0.914790000000     0.354060000000     0.621140000000     0.0509335  
H549     H      0.893520000000     0.386210000000     0.580750000000     0.0515283  
H550     H      0.855730000000     0.338320000000     0.605640000000     0.0192779  
H551     H      0.882950000000     0.313680000000     0.557590000000     0.0278954  
H552     H      0.975990000000     0.344250000000     0.569540000000     0.100175   
H553     H      0.904140000000     0.160350000000     0.959350000000     0.0349331  
H554     H      0.876930000000     0.149660000000     0.524840000000     0.0266308  
H555     H      0.920510000000     0.054260000000     0.896180000000     0.0961555  
H556     H      0.922590000000     0.111890000000     0.529270000000     0.0579801  
H557     H      0.887440000000     0.090240000000     0.994930000000     0.0515564  
H558     H      0.953810000000     0.115830000000     0.932440000000     0.0363483  
H559     H      0.916340000000     0.109490000000     0.884370000000     0.0277444  
H560     H      0.849520000000     0.114840000000     0.920060000000     0.0988205  
H561     H      0.652980000000     0.362270000000     0.509170000000     0.0272894  
H562     H      0.645780000000     0.403590000000     0.993300000000     0.031177   
H563     H      0.700520000000     0.335280000000     0.593630000000     0.0920773  
H564     H      0.683310000000     0.421890000000     0.573030000000     0.0538651  
H565     H      0.676730000000     0.387720000000     0.623040000000     0.0555319  
H566     H      0.735880000000     0.388460000000     0.577700000000     0.0249137  
H567     H      0.718220000000     0.388220000000     0.998770000000     0.0363419  
H568     H      0.613770000000     0.362170000000     0.594930000000     0.0997506  
H569     H      0.823210000000     0.412820000000     0.732550000000     0.0247186  
H570     H      0.832040000000     0.401410000000     0.813130000000     0.0376183  
H571     H      0.945240000000     0.377320000000     0.789670000000     0.100177   
H572     H      0.887700000000     0.415820000000     0.712770000000     0.0575356  
H573     H      0.871130000000     0.444730000000     0.767150000000     0.0566539  
H574     H      0.892710000000     0.386260000000     0.838070000000     0.0278323  
H575     H      0.904620000000     0.427130000000     0.849360000000     0.0177968  
H576     H      0.864460000000     0.362980000000     0.706060000000     0.094305   
N81      N      0.568120000000     0.126470000000     0.726720000000    -0.217314   
N82      N      0.686010000000     0.158530000000     0.685810000000    -0.21772    
N83      N      0.594770000000     0.087200000000     0.942680000000    -0.216983   
N84      N      0.706620000000     0.134800000000     0.985410000000    -0.218857   
N85      N      0.610800000000     0.420550000000     0.815340000000    -0.218276   
N86      N      0.678470000000     0.368030000000     0.771010000000    -0.220122   
N87      N      0.925150000000     0.110480000000     0.684610000000    -0.219257   
N88      N      0.834590000000     0.156760000000     0.665270000000    -0.218098   
N89      N      0.852420000000     0.348690000000     0.508550000000    -0.220256   
N90      N      0.964260000000     0.364420000000     0.549410000000    -0.221299   
N91      N      0.936040000000     0.067780000000     0.926580000000    -0.22127    
N92      N      0.856770000000     0.137770000000     0.935160000000    -0.219641   
N93      N      0.711560000000     0.345060000000     0.552740000000    -0.21997    
N94      N      0.618470000000     0.383940000000     0.571840000000    -0.22189    
N95      N      0.936280000000     0.400930000000     0.786410000000    -0.222246   
N96      N      0.846420000000     0.367440000000     0.741760000000    -0.219158   
O321     O      0.944500000000     0.451930000000     0.751560000000    -0.384476   
O322     O      0.984900000000     0.413460000000     0.732910000000    -0.378022   
O323     O      0.955320000000     0.021240000000     0.967740000000    -0.390845   
O324     O      0.975360000000     0.068620000000     0.506770000000    -0.37204    
O325     O      0.964420000000     0.418660000000     0.536090000000    -0.380775   
O326     O      0.501050000000     0.394710000000     0.605670000000    -0.378808   
O327     O      0.937830000000     0.057460000000     0.699730000000    -0.372665   
O328     O      0.971780000000     0.089080000000     0.637660000000    -0.377605   
O329     O      0.900240000000     0.000060000000     0.701560000000    -0.344142   
O330     O      0.961030000000     0.016320000000     0.817940000000    -0.536324   
O331     O      0.917480000000     0.467840000000     0.506130000000    -0.522009   
O332     O      0.993230000000     0.458820000000     0.921840000000    -0.369726   
O333     O      0.972720000000     0.460360000000     0.635670000000    -0.499346   
O334     O      0.966470000000     0.018730000000     0.599700000000    -0.632916   
O335     O      0.560570000000     0.073410000000     0.741550000000    -0.372159   
O336     O      0.546550000000     0.095920000000     0.646760000000    -0.374667   
O337     O      0.603850000000     0.436120000000     0.556100000000    -0.382641   
O338     O      0.572320000000     0.404460000000     0.622120000000    -0.374158   
O339     O      0.593390000000     0.039250000000     0.994240000000    -0.377752   
O340     O      0.550800000000     0.075960000000     0.509110000000    -0.375464   
O341     O      0.592390000000     0.469080000000     0.777730000000    -0.378649   
O342     O      0.565260000000     0.422960000000     0.749020000000    -0.377464   
O343     O      0.622270000000     0.032340000000     0.737670000000    -0.526658   
O344     O      0.555250000000     0.024220000000     0.842150000000    -0.345807   
O345     O      0.640470000000     0.495990000000     0.557640000000    -0.348281   
O346     O      0.581430000000     0.474120000000     0.939460000000    -0.527721   
O347     O      0.568820000000     0.032000000000     0.621700000000    -0.631254   
O348     O      0.574720000000     0.473410000000     0.656460000000    -0.502684   
O349     O      0.509820000000     0.038910000000     0.700280000000    -0.493415   
O350     O      0.531530000000     0.453130000000     0.555070000000    -0.63167    
O351     O      0.515910000000     0.479530000000     0.738570000000    -0.633981   
O352     O      0.524810000000     0.012090000000     0.518430000000    -0.489257   
O353     O      0.843870000000     0.297620000000     0.974400000000    -0.386194   
O354     O      0.811500000000     0.338600000000     0.935320000000    -0.374941   
O355     O      0.824560000000     0.208300000000     0.694960000000    -0.383481   
O356     O      0.800060000000     0.167110000000     0.749390000000    -0.374056   
O357     O      0.832620000000     0.314830000000     0.737780000000    -0.386061   
O358     O      0.803950000000     0.348050000000     0.805170000000    -0.375691   
O359     O      0.846320000000     0.191210000000     0.936650000000    -0.380346   
O360     O      0.810810000000     0.157720000000     0.881930000000    -0.374329   
O361     O      0.888200000000     0.250420000000     0.899660000000    -0.349204   
O362     O      0.840220000000     0.235820000000     0.536340000000    -0.524743   
O363     O      0.868250000000     0.259400000000     0.705930000000    -0.521023   
O364     O      0.790530000000     0.273650000000     0.636380000000    -0.365326   
O365     O      0.819480000000     0.283980000000     0.843750000000    -0.497644   
O366     O      0.819050000000     0.222930000000     0.825810000000    -0.633923   
O367     O      0.719410000000     0.187510000000     0.985030000000    -0.382201   
O368     O      0.733100000000     0.156850000000     0.899510000000    -0.380043   
O369     O      0.688480000000     0.314570000000     0.770210000000    -0.383628   
O370     O      0.725250000000     0.347800000000     0.822560000000    -0.377793   
O371     O      0.691470000000     0.208630000000     0.727380000000    -0.371338   
O372     O      0.728590000000     0.168860000000     0.755790000000    -0.372691   
O373     O      0.717060000000     0.294580000000     0.515350000000    -0.387451   
O374     O      0.739100000000     0.336480000000     0.959280000000    -0.375313   
O375     O      0.665010000000     0.242480000000     0.968520000000    -0.532202   
O376     O      0.733540000000     0.234500000000     0.572210000000    -0.332901   
O377     O      0.648120000000     0.254030000000     0.805110000000    -0.352417   
O378     O      0.694650000000     0.271380000000     0.668560000000    -0.519111   
O379     O      0.716350000000     0.220690000000     0.858680000000    -0.633519   
O380     O      0.717100000000     0.282540000000     0.877990000000    -0.502507   
O381     O      0.777180000000     0.214480000000     0.934990000000    -0.500525   
O382     O      0.759380000000     0.290670000000     0.766940000000    -0.628866   
O383     O      0.777310000000     0.275670000000     0.953400000000    -0.636532   
O384     O      0.758640000000     0.229260000000     0.749240000000    -0.487352   
Zr61     Zr     0.962740000000     0.003230000000     0.707210000000     1.37795    
Zr62     Zr     0.977720000000     0.476030000000     0.528340000000     1.37203    
Zr63     Zr     0.563170000000     0.015290000000     0.729030000000     1.37198    
Zr64     Zr     0.578340000000     0.489540000000     0.549050000000     1.38333    
Zr65     Zr     0.527040000000     0.438090000000     0.663560000000     1.38264    
Zr66     Zr     0.514550000000     0.054160000000     0.591990000000     1.37699    
Zr67     Zr     0.827390000000     0.246530000000     0.926650000000     1.38574    
Zr68     Zr     0.809560000000     0.260310000000     0.743080000000     1.36831    
Zr69     Zr     0.726840000000     0.244130000000     0.959210000000     1.37975    
Zr70     Zr     0.708660000000     0.259100000000     0.776880000000     1.38425    
Zr71     Zr     0.768610000000     0.313120000000     0.869450000000     1.37563    
Zr72     Zr     0.767580000000     0.191950000000     0.833010000000     1.37639    
C241     C      0.956100000000     0.923060000000     0.256420000000     0.406977   
C242     C      0.956750000000     0.552080000000     0.468160000000     0.402373   
C243     C      0.977110000000     0.893740000000     0.063880000000     0.409209   
C244     C      0.945640000000     0.584620000000     0.173900000000     0.403601   
C245     C      0.557860000000     0.597600000000     0.204020000000     0.405361   
C246     C      0.597530000000     0.909210000000     0.083880000000     0.408316   
C247     C      0.579130000000     0.566630000000     0.483460000000     0.412407   
C248     C      0.588530000000     0.938320000000     0.279930000000     0.402021   
C249     C      0.835580000000     0.827520000000     0.470870000000     0.405916   
C250     C      0.818960000000     0.678140000000     0.204520000000     0.402826   
C251     C      0.826700000000     0.842630000000     0.262170000000     0.408387   
C252     C      0.837190000000     0.663190000000     0.417340000000     0.405464   
C253     C      0.720360000000     0.660570000000     0.455360000000     0.404134   
C254     C      0.698170000000     0.842580000000     0.288820000000     0.401747   
C255     C      0.702540000000     0.679510000000     0.224510000000     0.410187   
C256     C      0.722960000000     0.824710000000     0.007180000000     0.402788   
C257     C      0.650850000000     0.663410000000     0.162310000000     0.0158121  
C258     C      0.626380000000     0.643490000000     0.203120000000    -0.10486    
C259     C      0.588180000000     0.648920000000     0.188240000000     0.0120253  
C260     C      0.690590000000     0.607810000000     0.452120000000     0.012261   
C261     C      0.651610000000     0.609360000000     0.463330000000    -0.105384   
C262     C      0.631150000000     0.584910000000     0.424510000000     0.0159959  
C263     C      0.686040000000     0.901320000000     0.288530000000     0.0220802  
C264     C      0.670230000000     0.909680000000     0.353570000000    -0.103119   
C265     C      0.640460000000     0.933980000000     0.349320000000     0.0134706  
C266     C      0.829940000000     0.621810000000     0.170400000000     0.0140409  
C267     C      0.863910000000     0.604020000000     0.158280000000    -0.104609   
C268     C      0.890500000000     0.608900000000     0.211650000000     0.0192369  
C269     C      0.930080000000     0.859650000000     0.022070000000     0.0223366  
C270     C      0.902940000000     0.861170000000     0.075210000000    -0.105524   
C271     C      0.872750000000     0.838450000000     0.063410000000     0.0160513  
C272     C      0.886410000000     0.641580000000     0.477820000000     0.0170844  
C273     C      0.906120000000     0.610000000000     0.486350000000    -0.108826   
C274     C      0.929230000000     0.602240000000     0.429230000000     0.0218548  
C275     C      0.649280000000     0.885970000000     0.032290000000     0.0235267  
C276     C      0.680580000000     0.895350000000     0.073000000000    -0.106686   
C277     C      0.713880000000     0.880120000000     0.048360000000     0.0161779  
C278     C      0.842120000000     0.900580000000     0.263810000000     0.0158997  
C279     C      0.876490000000     0.918720000000     0.260970000000    -0.105233   
C280     C      0.902180000000     0.908000000000     0.312930000000     0.0255659  
H577     H      0.945200000000     0.529270000000     0.088350000000     0.193895   
H578     H      0.535820000000     0.934790000000     0.028260000000     0.199105   
H579     H      0.587050000000     0.547670000000     0.118250000000     0.193295   
H580     H      0.514390000000     0.970850000000     0.280920000000     0.195669   
H581     H      0.971760000000     0.949660000000     0.404150000000     0.137262   
H582     H      0.595940000000     0.986110000000     0.410830000000     0.215798   
H583     H      0.645870000000     0.989750000000     0.101810000000     0.132184   
H584     H      0.637790000000     0.529610000000     0.202290000000     0.184433   
H585     H      0.535900000000     0.510160000000     0.354690000000     0.138747   
H586     H      0.975600000000     0.533180000000     0.334290000000     0.206627   
H587     H      0.895670000000     0.985900000000     0.164850000000     0.124796   
H588     H      0.900370000000     0.973790000000     0.037230000000     0.183187   
H589     H      0.630390000000     0.542020000000     0.276490000000     0.199115   
H590     H      0.946430000000     0.504100000000     0.346040000000     0.206141   
H591     H      0.910460000000     0.958510000000     0.466260000000     0.191194   
H592     H      0.568110000000     0.956160000000     0.424050000000     0.200618   
H593     H      0.838780000000     0.709730000000     0.315920000000     0.19494    
H594     H      0.756280000000     0.807290000000     0.235550000000     0.194257   
H595     H      0.696610000000     0.706630000000     0.360480000000     0.195771   
H596     H      0.780840000000     0.786160000000     0.493630000000     0.205581   
H597     H      0.809100000000     0.787290000000     0.118900000000     0.135838   
H598     H      0.673270000000     0.764010000000     0.150210000000     0.211147   
H599     H      0.645110000000     0.768530000000     0.341860000000     0.140904   
H600     H      0.652940000000     0.722370000000     0.463540000000     0.193324   
H601     H      0.755600000000     0.722740000000     0.076050000000     0.145024   
H602     H      0.861060000000     0.744130000000     0.055180000000     0.199313   
H603     H      0.888500000000     0.760210000000     0.356920000000     0.131471   
H604     H      0.885710000000     0.748280000000     0.230070000000     0.187958   
H605     H      0.652280000000     0.761950000000     0.476890000000     0.19666    
H606     H      0.824830000000     0.722630000000     0.061120000000     0.202122   
H607     H      0.874330000000     0.770140000000     0.166920000000     0.191416   
H608     H      0.710380000000     0.784220000000     0.143830000000     0.211346   
H609     H      0.643330000000     0.689150000000     0.163450000000     0.037446   
H610     H      0.649350000000     0.655130000000     0.112320000000     0.0228186  
H611     H      0.570820000000     0.628860000000     0.275850000000     0.098421   
H612     H      0.632650000000     0.617670000000     0.196230000000     0.0494056  
H613     H      0.630900000000     0.649390000000     0.253890000000     0.0532874  
H614     H      0.583190000000     0.645490000000     0.136760000000     0.0356102  
H615     H      0.580880000000     0.673870000000     0.201050000000     0.0296247  
H616     H      0.696590000000     0.635640000000     0.179830000000     0.0971141  
H617     H      0.696160000000     0.608460000000     0.400430000000     0.0353304  
H618     H      0.700910000000     0.584980000000     0.471580000000     0.0284969  
H619     H      0.581900000000     0.608390000000     0.430570000000     0.100424   
H620     H      0.646490000000     0.605290000000     0.014600000000     0.051671   
H621     H      0.642240000000     0.633820000000     0.451120000000     0.0492088  
H622     H      0.641530000000     0.560340000000     0.432110000000     0.0358515  
H623     H      0.633650000000     0.590620000000     0.373270000000     0.0217355  
H624     H      0.701170000000     0.636940000000     0.033800000000     0.0983013  
H625     H      0.714370000000     0.905230000000     0.289820000000     0.0321914  
H626     H      0.676090000000     0.917460000000     0.250770000000     0.0256313  
H627     H      0.606190000000     0.895910000000     0.319490000000     0.100574   
H628     H      0.661250000000     0.887700000000     0.378440000000     0.0575127  
H629     H      0.690660000000     0.920350000000     0.383880000000     0.048991   
H630     H      0.649920000000     0.956220000000     0.326000000000     0.0321736  
H631     H      0.632500000000     0.940100000000     0.398250000000     0.0282329  
H632     H      0.655990000000     0.863810000000     0.244990000000     0.0994172  
H633     H      0.820020000000     0.614630000000     0.217760000000     0.040489   
H634     H      0.810750000000     0.614130000000     0.134430000000     0.0286515  
H635     H      0.932380000000     0.632480000000     0.164810000000     0.0982415  
H636     H      0.858570000000     0.577940000000     0.153440000000     0.0509356  
H637     H      0.874460000000     0.612200000000     0.112190000000     0.0511784  
H638     H      0.888460000000     0.589280000000     0.247180000000     0.0366343  
H639     H      0.885600000000     0.631730000000     0.237380000000     0.0293812  
H640     H      0.849220000000     0.665620000000     0.127520000000     0.0944962  
H641     H      0.924440000000     0.877920000000     0.485080000000     0.0334744  
H642     H      0.929780000000     0.835820000000     0.498330000000     0.0296335  
H643     H      0.845980000000     0.873000000000     0.005130000000     0.0970417  
H644     H      0.914790000000     0.854060000000     0.121140000000     0.0509431  
H645     H      0.893520000000     0.886210000000     0.080750000000     0.0515226  
H646     H      0.855730000000     0.838320000000     0.105640000000     0.0192933  
H647     H      0.882950000000     0.813680000000     0.057600000000     0.0279287  
H648     H      0.975980000000     0.844250000000     0.069540000000     0.100229   
H649     H      0.904140000000     0.660350000000     0.459360000000     0.0349549  
H650     H      0.876940000000     0.649660000000     0.024840000000     0.0266863  
H651     H      0.920510000000     0.554260000000     0.396180000000     0.0960742  
H652     H      0.922590000000     0.611890000000     0.029270000000     0.0580311  
H653     H      0.887440000000     0.590240000000     0.494940000000     0.051477   
H654     H      0.953810000000     0.615840000000     0.432450000000     0.0363795  
H655     H      0.916340000000     0.609490000000     0.384370000000     0.0277436  
H656     H      0.849520000000     0.614840000000     0.420060000000     0.0987647  
H657     H      0.652980000000     0.862270000000     0.009180000000     0.0273106  
H658     H      0.645780000000     0.903590000000     0.493290000000     0.0312252  
H659     H      0.700520000000     0.835290000000     0.093630000000     0.0921449  
H660     H      0.683310000000     0.921900000000     0.073040000000     0.0537867  
H661     H      0.676730000000     0.887720000000     0.123040000000     0.0555041  
H662     H      0.735880000000     0.888460000000     0.077700000000     0.0248769  
H663     H      0.718220000000     0.888230000000     0.498770000000     0.036368   
H664     H      0.613770000000     0.862170000000     0.094930000000     0.099783   
H665     H      0.823210000000     0.912820000000     0.232540000000     0.024663   
H666     H      0.832040000000     0.901410000000     0.313130000000     0.0375764  
H667     H      0.945240000000     0.877310000000     0.289670000000     0.100119   
H668     H      0.887700000000     0.915820000000     0.212770000000     0.0574983  
H669     H      0.871120000000     0.944730000000     0.267150000000     0.0564725  
H670     H      0.892710000000     0.886260000000     0.338070000000     0.0278409  
H671     H      0.904620000000     0.927130000000     0.349360000000     0.0177292  
H672     H      0.864460000000     0.862980000000     0.206060000000     0.09427    
N97      N      0.568120000000     0.626470000000     0.226720000000    -0.217261   
N98      N      0.686010000000     0.658530000000     0.185810000000    -0.217751   
N99      N      0.594770000000     0.587200000000     0.442680000000    -0.216959   
N100     N      0.706620000000     0.634800000000     0.485410000000    -0.218846   
N101     N      0.610800000000     0.920550000000     0.315330000000    -0.218353   
N102     N      0.678470000000     0.868030000000     0.271010000000    -0.220091   
N103     N      0.925140000000     0.610480000000     0.184610000000    -0.219235   
N104     N      0.834590000000     0.656760000000     0.165270000000    -0.218007   
N105     N      0.852420000000     0.848690000000     0.008550000000    -0.220176   
N106     N      0.964260000000     0.864420000000     0.049410000000    -0.221313   
N107     N      0.936040000000     0.567780000000     0.426580000000    -0.221256   
N108     N      0.856770000000     0.637770000000     0.435160000000    -0.219598   
N109     N      0.711560000000     0.845060000000     0.052750000000    -0.220009   
N110     N      0.618470000000     0.883940000000     0.071850000000    -0.221896   
N111     N      0.936280000000     0.900930000000     0.286410000000    -0.222214   
N112     N      0.846410000000     0.867440000000     0.241760000000    -0.219185   
O385     O      0.944500000000     0.951930000000     0.251560000000    -0.384939   
O386     O      0.984900000000     0.913460000000     0.232900000000    -0.378029   
O387     O      0.955320000000     0.521240000000     0.467740000000    -0.391328   
O388     O      0.975360000000     0.568620000000     0.006770000000    -0.371903   
O389     O      0.964420000000     0.918660000000     0.036080000000    -0.380561   
O390     O      0.501050000000     0.894710000000     0.105670000000    -0.378742   
O391     O      0.937830000000     0.557460000000     0.199730000000    -0.372571   
O392     O      0.971770000000     0.589080000000     0.137670000000    -0.377584   
O393     O      0.900240000000     0.500070000000     0.201560000000    -0.345157   
O394     O      0.961030000000     0.516330000000     0.317940000000    -0.535962   
O395     O      0.917490000000     0.967850000000     0.006130000000    -0.521745   
O396     O      0.993240000000     0.958820000000     0.421840000000    -0.369579   
O397     O      0.972720000000     0.960370000000     0.135670000000    -0.499702   
O398     O      0.966470000000     0.518730000000     0.099710000000    -0.63323    
O399     O      0.560570000000     0.573410000000     0.241550000000    -0.371938   
O400     O      0.546550000000     0.595920000000     0.146760000000    -0.374587   
O401     O      0.603850000000     0.936120000000     0.056100000000    -0.382515   
O402     O      0.572320000000     0.904460000000     0.122120000000    -0.37416    
O403     O      0.593390000000     0.539250000000     0.494240000000    -0.378241   
O404     O      0.550800000000     0.575960000000     0.009100000000    -0.375393   
O405     O      0.592380000000     0.969080000000     0.277740000000    -0.379181   
O406     O      0.565260000000     0.922970000000     0.249020000000    -0.377633   
O407     O      0.622270000000     0.532340000000     0.237670000000    -0.526622   
O408     O      0.555250000000     0.524220000000     0.342150000000    -0.345905   
O409     O      0.640470000000     0.995990000000     0.057650000000    -0.348554   
O410     O      0.581430000000     0.974120000000     0.439460000000    -0.527553   
O411     O      0.568810000000     0.532000000000     0.121700000000    -0.631318   
O412     O      0.574720000000     0.973410000000     0.156460000000    -0.502984   
O413     O      0.509820000000     0.538900000000     0.200280000000    -0.493409   
O414     O      0.531530000000     0.953130000000     0.055070000000    -0.63159    
O415     O      0.515910000000     0.979530000000     0.238570000000    -0.634626   
O416     O      0.524810000000     0.512090000000     0.018430000000    -0.490041   
O417     O      0.843870000000     0.797620000000     0.474400000000    -0.386185   
O418     O      0.811500000000     0.838600000000     0.435320000000    -0.374952   
O419     O      0.824560000000     0.708300000000     0.194960000000    -0.383583   
O420     O      0.800060000000     0.667100000000     0.249390000000    -0.373958   
O421     O      0.832620000000     0.814830000000     0.237780000000    -0.386083   
O422     O      0.803950000000     0.848040000000     0.305170000000    -0.375789   
O423     O      0.846320000000     0.691210000000     0.436650000000    -0.380451   
O424     O      0.810810000000     0.657720000000     0.381930000000    -0.374321   
O425     O      0.888200000000     0.750420000000     0.399660000000    -0.349178   
O426     O      0.840220000000     0.735820000000     0.036350000000    -0.524785   
O427     O      0.868250000000     0.759400000000     0.205940000000    -0.520862   
O428     O      0.790530000000     0.773650000000     0.136380000000    -0.36539    
O429     O      0.819480000000     0.783980000000     0.343750000000    -0.497645   
O430     O      0.819050000000     0.722930000000     0.325810000000    -0.63394    
O431     O      0.719410000000     0.687510000000     0.485030000000    -0.382189   
O432     O      0.733100000000     0.656850000000     0.399510000000    -0.380064   
O433     O      0.688470000000     0.814570000000     0.270210000000    -0.383574   
O434     O      0.725250000000     0.847800000000     0.322550000000    -0.377819   
O435     O      0.691470000000     0.708630000000     0.227390000000    -0.371375   
O436     O      0.728590000000     0.668870000000     0.255790000000    -0.372804   
O437     O      0.717060000000     0.794580000000     0.015350000000    -0.387423   
O438     O      0.739100000000     0.836480000000     0.459280000000    -0.375273   
O439     O      0.665000000000     0.742470000000     0.468530000000    -0.532259   
O440     O      0.733540000000     0.734510000000     0.072210000000    -0.332798   
O441     O      0.648120000000     0.754030000000     0.305110000000    -0.352343   
O442     O      0.694650000000     0.771380000000     0.168560000000    -0.518853   
O443     O      0.716350000000     0.720690000000     0.358680000000    -0.633525   
O444     O      0.717100000000     0.782540000000     0.378000000000    -0.50252    
O445     O      0.777180000000     0.714480000000     0.434990000000    -0.500455   
O446     O      0.759380000000     0.790670000000     0.266940000000    -0.628854   
O447     O      0.777310000000     0.775670000000     0.453400000000    -0.636466   
O448     O      0.758640000000     0.729270000000     0.249240000000    -0.487378   
Zr73     Zr     0.962740000000     0.503230000000     0.207210000000     1.37629    
Zr74     Zr     0.977720000000     0.976040000000     0.028340000000     1.3708     
Zr75     Zr     0.563160000000     0.515280000000     0.229030000000     1.37028    
Zr76     Zr     0.578340000000     0.989540000000     0.049050000000     1.382      
Zr77     Zr     0.527040000000     0.938090000000     0.163560000000     1.38255    
Zr78     Zr     0.514550000000     0.554150000000     0.091990000000     1.37685    
Zr79     Zr     0.827390000000     0.746530000000     0.426650000000     1.38588    
Zr80     Zr     0.809560000000     0.760310000000     0.243080000000     1.3684     
Zr81     Zr     0.726830000000     0.744130000000     0.459210000000     1.37978    
Zr82     Zr     0.708660000000     0.759100000000     0.276880000000     1.38424    
Zr83     Zr     0.768610000000     0.813120000000     0.369450000000     1.37567    
Zr84     Zr     0.767580000000     0.691950000000     0.333010000000     1.37633    
C281     C      0.956100000000     0.923060000000     0.756410000000     0.407045   
C282     C      0.956740000000     0.552080000000     0.968160000000     0.402246   
C283     C      0.977110000000     0.893740000000     0.563880000000     0.409241   
C284     C      0.945640000000     0.584620000000     0.673900000000     0.403608   
C285     C      0.557860000000     0.597600000000     0.704020000000     0.405393   
C286     C      0.597530000000     0.909210000000     0.583870000000     0.408281   
C287     C      0.579130000000     0.566630000000     0.983460000000     0.412361   
C288     C      0.588530000000     0.938320000000     0.779930000000     0.401987   
C289     C      0.835580000000     0.827520000000     0.970870000000     0.405864   
C290     C      0.818960000000     0.678140000000     0.704520000000     0.402844   
C291     C      0.826690000000     0.842630000000     0.762170000000     0.408419   
C292     C      0.837190000000     0.663190000000     0.917330000000     0.405675   
C293     C      0.720360000000     0.660570000000     0.955360000000     0.404167   
C294     C      0.698170000000     0.842580000000     0.788820000000     0.401684   
C295     C      0.702540000000     0.679510000000     0.724510000000     0.410349   
C296     C      0.722960000000     0.824710000000     0.507180000000     0.402748   
C297     C      0.650850000000     0.663410000000     0.662310000000     0.0157837  
C298     C      0.626380000000     0.643480000000     0.703120000000    -0.104874   
C299     C      0.588180000000     0.648920000000     0.688240000000     0.0119701  
C300     C      0.690590000000     0.607810000000     0.952120000000     0.012294   
C301     C      0.651610000000     0.609360000000     0.963330000000    -0.105498   
C302     C      0.631150000000     0.584910000000     0.924520000000     0.0160616  
C303     C      0.686040000000     0.901320000000     0.788530000000     0.0220964  
C304     C      0.670240000000     0.909680000000     0.853570000000    -0.10313    
C305     C      0.640460000000     0.933980000000     0.849320000000     0.0134737  
C306     C      0.829940000000     0.621810000000     0.670400000000     0.0140175  
C307     C      0.863910000000     0.604020000000     0.658280000000    -0.104572   
C308     C      0.890500000000     0.608900000000     0.711650000000     0.0191472  
C309     C      0.930080000000     0.859650000000     0.522070000000     0.0221794  
C310     C      0.902940000000     0.861170000000     0.575210000000    -0.105487   
C311     C      0.872750000000     0.838450000000     0.563400000000     0.0160593  
C312     C      0.886410000000     0.641580000000     0.977820000000     0.0170648  
C313     C      0.906120000000     0.610000000000     0.986350000000    -0.10892    
C314     C      0.929230000000     0.602240000000     0.929230000000     0.0218773  
C315     C      0.649280000000     0.885970000000     0.532290000000     0.0234968  
C316     C      0.680580000000     0.895350000000     0.573000000000    -0.106672   
C317     C      0.713880000000     0.880120000000     0.548360000000     0.016114   
C318     C      0.842120000000     0.900580000000     0.763800000000     0.0159107  
C319     C      0.876490000000     0.918720000000     0.760970000000    -0.105257   
C320     C      0.902180000000     0.908000000000     0.812930000000     0.0255701  
H673     H      0.945200000000     0.529270000000     0.588350000000     0.19392    
H674     H      0.535820000000     0.934790000000     0.528260000000     0.199086   
H675     H      0.587050000000     0.547670000000     0.618250000000     0.193292   
H676     H      0.514390000000     0.970850000000     0.780920000000     0.195671   
H677     H      0.971770000000     0.949660000000     0.904150000000     0.137393   
H678     H      0.595940000000     0.986110000000     0.910830000000     0.215796   
H679     H      0.645870000000     0.989750000000     0.601810000000     0.132108   
H680     H      0.637790000000     0.529600000000     0.702290000000     0.184404   
H681     H      0.535900000000     0.510160000000     0.854690000000     0.138742   
H682     H      0.975590000000     0.533180000000     0.834290000000     0.206767   
H683     H      0.895680000000     0.985900000000     0.664850000000     0.124802   
H684     H      0.900370000000     0.973790000000     0.537230000000     0.183197   
H685     H      0.630390000000     0.542020000000     0.776490000000     0.199108   
H686     H      0.946430000000     0.504100000000     0.846040000000     0.206183   
H687     H      0.910460000000     0.958510000000     0.966260000000     0.191128   
H688     H      0.568110000000     0.956160000000     0.924050000000     0.200611   
H689     H      0.838780000000     0.709730000000     0.815920000000     0.194918   
H690     H      0.756280000000     0.807290000000     0.735550000000     0.194249   
H691     H      0.696610000000     0.706630000000     0.860480000000     0.195754   
H692     H      0.780840000000     0.786160000000     0.993630000000     0.205558   
H693     H      0.809100000000     0.787290000000     0.618900000000     0.135828   
H694     H      0.673270000000     0.764010000000     0.650210000000     0.211146   
H695     H      0.645110000000     0.768530000000     0.841850000000     0.140967   
H696     H      0.652940000000     0.722370000000     0.963540000000     0.193313   
H697     H      0.755600000000     0.722740000000     0.576040000000     0.145078   
H698     H      0.861060000000     0.744130000000     0.555180000000     0.199241   
H699     H      0.888500000000     0.760210000000     0.856920000000     0.131472   
H700     H      0.885710000000     0.748280000000     0.730070000000     0.187916   
H701     H      0.652280000000     0.761950000000     0.976890000000     0.19662    
H702     H      0.824830000000     0.722630000000     0.561120000000     0.202037   
H703     H      0.874330000000     0.770140000000     0.666920000000     0.191498   
H704     H      0.710380000000     0.784220000000     0.643830000000     0.211337   
H705     H      0.643330000000     0.689150000000     0.663440000000     0.0374468  
H706     H      0.649350000000     0.655130000000     0.612330000000     0.022824   
H707     H      0.570820000000     0.628860000000     0.775850000000     0.0984168  
H708     H      0.632650000000     0.617670000000     0.696220000000     0.049433   
H709     H      0.630900000000     0.649390000000     0.753890000000     0.0532841  
H710     H      0.583190000000     0.645490000000     0.636770000000     0.0356217  
H711     H      0.580880000000     0.673870000000     0.701050000000     0.0296352  
H712     H      0.696590000000     0.635630000000     0.679830000000     0.0970468  
H713     H      0.696160000000     0.608460000000     0.900430000000     0.0353203  
H714     H      0.700910000000     0.584980000000     0.971580000000     0.0284685  
H715     H      0.581900000000     0.608390000000     0.930570000000     0.100412   
H716     H      0.646490000000     0.605290000000     0.514600000000     0.0516029  
H717     H      0.642240000000     0.633820000000     0.951120000000     0.0492161  
H718     H      0.641530000000     0.560340000000     0.932100000000     0.0358206  
H719     H      0.633650000000     0.590620000000     0.873260000000     0.0217179  
H720     H      0.701170000000     0.636940000000     0.533800000000     0.0982562  
H721     H      0.714370000000     0.905230000000     0.789820000000     0.0321849  
H722     H      0.676090000000     0.917460000000     0.750770000000     0.0256257  
H723     H      0.606190000000     0.895910000000     0.819490000000     0.100567   
H724     H      0.661250000000     0.887700000000     0.878450000000     0.0574942  
H725     H      0.690660000000     0.920350000000     0.883880000000     0.0490046  
H726     H      0.649920000000     0.956220000000     0.826000000000     0.0321676  
H727     H      0.632500000000     0.940100000000     0.898260000000     0.0282211  
H728     H      0.655990000000     0.863810000000     0.744990000000     0.0994143  
H729     H      0.820020000000     0.614630000000     0.717750000000     0.0404889  
H730     H      0.810750000000     0.614130000000     0.634430000000     0.0286458  
H731     H      0.932380000000     0.632480000000     0.664810000000     0.0982701  
H732     H      0.858570000000     0.577940000000     0.653440000000     0.05092    
H733     H      0.874460000000     0.612200000000     0.612190000000     0.0511594  
H734     H      0.888460000000     0.589280000000     0.747180000000     0.0366545  
H735     H      0.885600000000     0.631720000000     0.737380000000     0.0294008  
H736     H      0.849220000000     0.665620000000     0.627520000000     0.0944908  
H737     H      0.924440000000     0.877920000000     0.985080000000     0.0333935  
H738     H      0.929780000000     0.835820000000     0.998340000000     0.0295475  
H739     H      0.845970000000     0.873000000000     0.505130000000     0.0970064  
H740     H      0.914790000000     0.854060000000     0.621140000000     0.0509355  
H741     H      0.893520000000     0.886210000000     0.580750000000     0.0515096  
H742     H      0.855730000000     0.838320000000     0.605640000000     0.0192823  
H743     H      0.882940000000     0.813680000000     0.557590000000     0.0279129  
H744     H      0.975990000000     0.844250000000     0.569540000000     0.100187   
H745     H      0.904150000000     0.660350000000     0.959350000000     0.0349388  
H746     H      0.876940000000     0.649660000000     0.524840000000     0.0266364  
H747     H      0.920510000000     0.554260000000     0.896180000000     0.096069   
H748     H      0.922590000000     0.611890000000     0.529270000000     0.0579758  
H749     H      0.887440000000     0.590240000000     0.994930000000     0.0514753  
H750     H      0.953810000000     0.615840000000     0.932440000000     0.0363544  
H751     H      0.916340000000     0.609490000000     0.884370000000     0.027736   
H752     H      0.849520000000     0.614840000000     0.920060000000     0.0987579  
H753     H      0.652980000000     0.862260000000     0.509170000000     0.0272967  
H754     H      0.645780000000     0.903590000000     0.993300000000     0.0311739  
H755     H      0.700520000000     0.835290000000     0.593630000000     0.0921136  
H756     H      0.683310000000     0.921900000000     0.573030000000     0.0537727  
H757     H      0.676730000000     0.887720000000     0.623040000000     0.0555025  
H758     H      0.735880000000     0.888460000000     0.577700000000     0.0248764  
H759     H      0.718220000000     0.888220000000     0.998770000000     0.0363167  
H760     H      0.613770000000     0.862170000000     0.594930000000     0.0997582  
H761     H      0.823210000000     0.912820000000     0.732550000000     0.024653   
H762     H      0.832040000000     0.901410000000     0.813130000000     0.0375719  
H763     H      0.945230000000     0.877310000000     0.789670000000     0.10014    
H764     H      0.887700000000     0.915820000000     0.712770000000     0.0574974  
H765     H      0.871130000000     0.944730000000     0.767150000000     0.0564855  
H766     H      0.892710000000     0.886260000000     0.838070000000     0.0278339  
H767     H      0.904620000000     0.927130000000     0.849360000000     0.0177222  
H768     H      0.864460000000     0.862980000000     0.706060000000     0.0942651  
N113     N      0.568110000000     0.626470000000     0.726720000000    -0.217265   
N114     N      0.686010000000     0.658530000000     0.685810000000    -0.217711   
N115     N      0.594770000000     0.587200000000     0.942680000000    -0.216969   
N116     N      0.706620000000     0.634800000000     0.985410000000    -0.218904   
N117     N      0.610800000000     0.920550000000     0.815340000000    -0.218338   
N118     N      0.678470000000     0.868030000000     0.771010000000    -0.220082   
N119     N      0.925150000000     0.610480000000     0.684610000000    -0.21927    
N120     N      0.834590000000     0.656760000000     0.665270000000    -0.218008   
N121     N      0.852420000000     0.848690000000     0.508550000000    -0.220206   
N122     N      0.964260000000     0.864420000000     0.549410000000    -0.221282   
N123     N      0.936040000000     0.567780000000     0.926580000000    -0.22129    
N124     N      0.856770000000     0.637770000000     0.935160000000    -0.219625   
N125     N      0.711560000000     0.845060000000     0.552740000000    -0.22       
N126     N      0.618470000000     0.883940000000     0.571840000000    -0.22188    
N127     N      0.936280000000     0.900930000000     0.786410000000    -0.22223    
N128     N      0.846410000000     0.867440000000     0.741760000000    -0.219153   
O449     O      0.944500000000     0.951930000000     0.751560000000    -0.384962   
O450     O      0.984900000000     0.913460000000     0.732910000000    -0.37807    
O451     O      0.955320000000     0.521240000000     0.967740000000    -0.391335   
O452     O      0.975360000000     0.568620000000     0.506770000000    -0.372035   
O453     O      0.964420000000     0.918660000000     0.536090000000    -0.380602   
O454     O      0.501050000000     0.894710000000     0.605670000000    -0.378761   
O455     O      0.937830000000     0.557460000000     0.699730000000    -0.372573   
O456     O      0.971770000000     0.589080000000     0.637660000000    -0.377572   
O457     O      0.900240000000     0.500070000000     0.701560000000    -0.345148   
O458     O      0.961030000000     0.516330000000     0.817940000000    -0.536113   
O459     O      0.917490000000     0.967850000000     0.506130000000    -0.521814   
O460     O      0.993240000000     0.958820000000     0.921840000000    -0.369736   
O461     O      0.972720000000     0.960370000000     0.635670000000    -0.499703   
O462     O      0.966470000000     0.518730000000     0.599700000000    -0.633258   
O463     O      0.560570000000     0.573410000000     0.741550000000    -0.371947   
O464     O      0.546550000000     0.595920000000     0.646760000000    -0.374595   
O465     O      0.603850000000     0.936120000000     0.556100000000    -0.382541   
O466     O      0.572320000000     0.904460000000     0.622120000000    -0.37412    
O467     O      0.593390000000     0.539250000000     0.994240000000    -0.378282   
O468     O      0.550800000000     0.575960000000     0.509110000000    -0.375456   
O469     O      0.592380000000     0.969080000000     0.777730000000    -0.379179   
O470     O      0.565260000000     0.922970000000     0.749020000000    -0.37762    
O471     O      0.622270000000     0.532340000000     0.737670000000    -0.526591   
O472     O      0.555250000000     0.524220000000     0.842150000000    -0.34591    
O473     O      0.640470000000     0.995990000000     0.557640000000    -0.348501   
O474     O      0.581430000000     0.974120000000     0.939460000000    -0.527586   
O475     O      0.568810000000     0.532000000000     0.621700000000    -0.631316   
O476     O      0.574720000000     0.973410000000     0.656460000000    -0.502967   
O477     O      0.509820000000     0.538900000000     0.700280000000    -0.49341    
O478     O      0.531530000000     0.953130000000     0.555070000000    -0.631583   
O479     O      0.515910000000     0.979530000000     0.738570000000    -0.634621   
O480     O      0.524810000000     0.512090000000     0.518430000000    -0.490057   
O481     O      0.843870000000     0.797620000000     0.974400000000    -0.386193   
O482     O      0.811500000000     0.838600000000     0.935320000000    -0.374948   
O483     O      0.824560000000     0.708300000000     0.694960000000    -0.383581   
O484     O      0.800060000000     0.667100000000     0.749390000000    -0.374006   
O485     O      0.832620000000     0.814830000000     0.737780000000    -0.386077   
O486     O      0.803950000000     0.848040000000     0.805170000000    -0.375872   
O487     O      0.846320000000     0.691200000000     0.936650000000    -0.380537   
O488     O      0.810810000000     0.657720000000     0.881930000000    -0.37447    
O489     O      0.888200000000     0.750420000000     0.899660000000    -0.349195   
O490     O      0.840220000000     0.735820000000     0.536340000000    -0.52472    
O491     O      0.868250000000     0.759400000000     0.705930000000    -0.520887   
O492     O      0.790530000000     0.773650000000     0.636380000000    -0.365405   
O493     O      0.819480000000     0.783980000000     0.843750000000    -0.497631   
O494     O      0.819050000000     0.722930000000     0.825810000000    -0.633882   
O495     O      0.719420000000     0.687510000000     0.985030000000    -0.38224    
O496     O      0.733100000000     0.656850000000     0.899510000000    -0.380124   
O497     O      0.688470000000     0.814570000000     0.770210000000    -0.383555   
O498     O      0.725250000000     0.847800000000     0.822560000000    -0.377786   
O499     O      0.691470000000     0.708630000000     0.727380000000    -0.3714     
O500     O      0.728580000000     0.668870000000     0.755790000000    -0.372917   
O501     O      0.717060000000     0.794580000000     0.515350000000    -0.387456   
O502     O      0.739100000000     0.836480000000     0.959280000000    -0.375327   
O503     O      0.665000000000     0.742470000000     0.968520000000    -0.532264   
O504     O      0.733540000000     0.734500000000     0.572210000000    -0.332883   
O505     O      0.648120000000     0.754030000000     0.805110000000    -0.352405   
O506     O      0.694650000000     0.771380000000     0.668560000000    -0.518853   
O507     O      0.716350000000     0.720690000000     0.858680000000    -0.63347    
O508     O      0.717100000000     0.782540000000     0.877990000000    -0.502526   
O509     O      0.777180000000     0.714480000000     0.934990000000    -0.500421   
O510     O      0.759380000000     0.790670000000     0.766940000000    -0.628863   
O511     O      0.777310000000     0.775670000000     0.953400000000    -0.636454   
O512     O      0.758640000000     0.729260000000     0.749240000000    -0.487297   
Zr85     Zr     0.962740000000     0.503230000000     0.707210000000     1.37615    
Zr86     Zr     0.977720000000     0.976040000000     0.528340000000     1.37073    
Zr87     Zr     0.563160000000     0.515280000000     0.729030000000     1.37027    
Zr88     Zr     0.578340000000     0.989540000000     0.549050000000     1.38194    
Zr89     Zr     0.527040000000     0.938090000000     0.663560000000     1.38254    
Zr90     Zr     0.514550000000     0.554150000000     0.591990000000     1.37688    
Zr91     Zr     0.827390000000     0.746530000000     0.926650000000     1.38576    
Zr92     Zr     0.809560000000     0.760310000000     0.743080000000     1.36833    
Zr93     Zr     0.726830000000     0.744130000000     0.959210000000     1.3797     
Zr94     Zr     0.708660000000     0.759100000000     0.776880000000     1.38423    
Zr95     Zr     0.768610000000     0.813120000000     0.869450000000     1.37569    
Zr96     Zr     0.767580000000     0.691940000000     0.833010000000     1.37639    


