data_structure

_audit_creation_method RASPA-1.0
_audit_creation_date 2023-6-4
_audit_author_name 'Poobodin Mano'

_cell_length_a    34.2376
_cell_length_b    37.2271
_cell_length_c    37.5268
_cell_angle_alpha 82.7738
_cell_angle_beta  96.3112
_cell_angle_gamma 119.441
_cell_volume      41258.8

_symmetry_cell_setting          triclinic
_symmetry_space_group_name_Hall 'P 1'
_symmetry_space_group_name_H-M  'P 1'
_symmetry_Int_Tables_number     1

_symmetry_equiv_pos_as_xyz 'x,y,z'

loop_
_atom_site_label
_atom_site_type_symbol
_atom_site_fract_x
_atom_site_fract_y
_atom_site_fract_z
_atom_site_charge
C1       C      0.123390000000     0.106160000000     0.976730000000     0.413213   
C2       C      0.917380000000     0.943040000000     0.868860000000     0.401172   
C3       C      0.020880000000     0.121020000000     0.963730000000     0.425131   
C4       C      0.041010000000     0.921520000000     0.916060000000     0.391733   
C5       C      0.958580000000     0.839750000000     0.011640000000     0.415792   
C6       C      0.944260000000     0.033430000000     0.066650000000     0.382706   
C7       C      0.847380000000     0.855140000000     0.989570000000     0.404943   
C8       C      0.053390000000     0.014730000000     0.106460000000     0.40503    
C9       C      0.022320000000     0.892410000000     0.437220000000     0.383683   
C10      C      0.840470000000     0.968890000000     0.453190000000     0.399254   
C11      C      0.026970000000     0.002320000000     0.364450000000     0.403797   
C12      C      0.847300000000     0.870390000000     0.524300000000     0.391762   
C13      C      0.948790000000     0.962470000000     0.611310000000     0.394206   
C14      C      0.131470000000     0.095470000000     0.450980000000     0.402541   
C15      C      0.947400000000     0.077030000000     0.531000000000     0.399247   
C16      C      0.139360000000     0.009300000000     0.521920000000     0.399607   
C17      C      0.024290000000     0.380610000000     0.963000000000     0.405657   
C18      C      0.884120000000     0.465040000000     0.065210000000     0.400282   
C19      C      0.880290000000     0.359890000000     0.930230000000     0.398095   
C20      C      0.027880000000     0.478150000000     0.112460000000     0.401705   
C21      C      0.098080000000     0.604400000000     0.043080000000     0.414353   
C22      C      0.949740000000     0.491740000000     0.857470000000     0.410281   
C23      C      0.942990000000     0.581710000000     0.007670000000     0.406356   
C24      C      0.085010000000     0.508290000000     0.896920000000     0.40089    
C25      C      0.946350000000     0.338050000000     0.514380000000     0.390528   
C26      C      0.865710000000     0.517910000000     0.488660000000     0.419659   
C27      C      0.880240000000     0.358190000000     0.430620000000     0.401746   
C28      C      0.931510000000     0.489100000000     0.597680000000     0.405738   
C29      C      0.080300000000     0.600740000000     0.546790000000     0.390489   
C30      C      0.032830000000     0.473800000000     0.373320000000     0.391449   
C31      C      0.012390000000     0.623260000000     0.454970000000     0.395717   
C32      C      0.085540000000     0.430850000000     0.499610000000     0.410543   
C33      C      0.339260000000     0.951900000000     0.959410000000     0.401924   
C34      C      0.525320000000     0.883030000000     0.943290000000     0.39454    
C35      C      0.357490000000     0.867420000000     0.042910000000     0.395325   
C36      C      0.530070000000     0.002000000000     0.868200000000     0.418545   
C37      C      0.630530000000     0.088900000000     0.947950000000     0.406957   
C38      C      0.457280000000     0.963970000000     0.114930000000     0.403049   
C39      C      0.639170000000     0.992480000000     0.023810000000     0.390362   
C40      C      0.460160000000     0.072400000000     0.037490000000     0.38422    
C41      C      0.530580000000     0.121440000000     0.465880000000     0.421449   
C42      C      0.334700000000     0.864280000000     0.477000000000     0.413193   
C43      C      0.432010000000     0.038810000000     0.559880000000     0.401751   
C44      C      0.425640000000     0.945280000000     0.370920000000     0.404527   
C45      C      0.532510000000     0.922950000000     0.415260000000     0.371724   
C46      C      0.549680000000     0.010420000000     0.611830000000     0.399532   
C47      C      0.445730000000     0.833860000000     0.518010000000     0.417842   
C48      C      0.634900000000     0.091610000000     0.505000000000     0.411334   
C49      C      0.467420000000     0.341610000000     0.000060000000     0.401425   
C50      C      0.359800000000     0.501910000000     0.968540000000     0.403498   
C51      C      0.396870000000     0.359940000000     0.910020000000     0.399765   
C52      C      0.435340000000     0.485030000000     0.080730000000     0.411786   
C53      C      0.571050000000     0.594290000000     0.034290000000     0.387013   
C54      C      0.537490000000     0.475160000000     0.856410000000     0.396241   
C55      C      0.504850000000     0.617850000000     0.937800000000     0.39383    
C56      C      0.611800000000     0.463660000000     0.964200000000     0.3988     
C57      C      0.526910000000     0.376660000000     0.451710000000     0.401148   
C58      C      0.380930000000     0.482870000000     0.520350000000     0.361125   
C59      C      0.383270000000     0.364630000000     0.406100000000     0.391535   
C60      C      0.518280000000     0.471930000000     0.596780000000     0.408082   
C61      C      0.591850000000     0.600450000000     0.533000000000     0.404257   
C62      C      0.467370000000     0.493890000000     0.338490000000     0.40032    
C63      C      0.455850000000     0.588320000000     0.483960000000     0.411126   
C64      C      0.593370000000     0.505720000000     0.390570000000     0.373886   
C65      C      0.548880000000     0.450320000000     0.651700000000     0.16422    
C66      C      0.512660000000     0.490630000000     0.653170000000     0.0770642  
C67      C      0.554650000000     0.448520000000     0.689520000000    -0.108616   
C68      C      0.535890000000     0.434940000000     0.771730000000    -0.0811017  
C69      C      0.519120000000     0.490180000000     0.690330000000    -0.0920849  
C70      C      0.548890000000     0.470890000000     0.748400000000     0.0313495  
C71      C      0.540490000000     0.469230000000     0.708940000000     0.0498389  
C72      C      0.535730000000     0.437130000000     0.808760000000     0.0689077  
C73      C      0.565040000000     0.509820000000     0.799800000000     0.0683496  
C74      C      0.565900000000     0.508800000000     0.763050000000    -0.0831532  
C75      C      0.400680000000     0.452080000000     0.136300000000     0.165462   
C76      C      0.444060000000     0.525420000000     0.127920000000     0.0784141  
C77      C      0.402870000000     0.454370000000     0.173440000000    -0.11095    
C78      C      0.449850000000     0.465160000000     0.246160000000    -0.0832447  
C79      C      0.446480000000     0.528530000000     0.164880000000    -0.0900502  
C80      C      0.438280000000     0.493840000000     0.227500000000     0.0325524  
C81      C      0.428080000000     0.492520000000     0.188150000000     0.0501161  
C82      C      0.460000000000     0.466120000000     0.282990000000     0.071982   
C83      C      0.448420000000     0.523810000000     0.283690000000     0.0699123  
C84      C      0.438130000000     0.523780000000     0.246530000000    -0.0824212  
C85      C      0.397770000000     0.762860000000     0.507580000000     0.170216   
C86      C      0.467520000000     0.784350000000     0.541460000000     0.0781898  
C87      C      0.396530000000     0.725910000000     0.501880000000    -0.113741   
C88      C      0.431090000000     0.674300000000     0.471090000000    -0.0820856  
C89      C      0.466230000000     0.747190000000     0.537370000000    -0.0942457  
C90      C      0.433090000000     0.682260000000     0.506920000000     0.0345686  
C91      C      0.431820000000     0.718890000000     0.515590000000     0.0529346  
C92      C      0.437360000000     0.641790000000     0.463520000000     0.0747428  
C93      C      0.444200000000     0.624010000000     0.526060000000     0.0838915  
C94      C      0.438710000000     0.656320000000     0.534490000000    -0.0798186  
C95      C      0.548010000000     0.182200000000     0.424900000000     0.167651   
C96      C      0.553690000000     0.185510000000     0.488270000000     0.0890633  
C97      C      0.554680000000     0.222800000000     0.419750000000    -0.109624   
C98      C      0.533010000000     0.292410000000     0.417360000000    -0.0818433  
C99      C      0.560140000000     0.225420000000     0.483890000000    -0.090275   
C100     C      0.559330000000     0.284370000000     0.445120000000     0.033073   
C101     C      0.559370000000     0.244270000000     0.449400000000     0.0527527  
C102     C      0.524930000000     0.325420000000     0.418640000000     0.0723209  
C103     C      0.569670000000     0.343510000000     0.473150000000     0.072083   
C104     C      0.580280000000     0.312260000000     0.471760000000    -0.0831551  
C105     C      0.524330000000     0.030860000000     0.807780000000     0.171414   
C106     C      0.573520000000     0.002490000000     0.822910000000     0.0880641  
C107     C      0.533050000000     0.035270000000     0.771400000000    -0.109087   
C108     C      0.570050000000     0.056090000000     0.697360000000    -0.0810471  
C109     C      0.583290000000     0.007310000000     0.786960000000    -0.0883152  
C110     C      0.567450000000     0.023390000000     0.721820000000     0.0343287  
C111     C      0.562070000000     0.022820000000     0.760610000000     0.0526518  
C112     C      0.567240000000     0.052590000000     0.660420000000     0.0716866  
C113     C      0.562780000000     0.986610000000     0.671490000000     0.0702833  
C114     C      0.565690000000     0.989160000000     0.708500000000    -0.083358   
C115     C      0.470790000000     0.945850000000     0.177760000000     0.163808   
C116     C      0.409690000000     0.958610000000     0.159330000000     0.0757857  
C117     C      0.457880000000     0.937110000000     0.213260000000    -0.109653   
C118     C      0.411300000000     0.903920000000     0.284150000000    -0.0805835  
C119     C      0.397080000000     0.951190000000     0.194820000000    -0.0912917  
C120     C      0.412170000000     0.936540000000     0.260500000000     0.0331308  
C121     C      0.421300000000     0.940270000000     0.222180000000     0.0504794  
C122     C      0.412090000000     0.905550000000     0.321260000000     0.0754491  
C123     C      0.412040000000     0.969700000000     0.311690000000     0.0731122  
C124     C      0.410360000000     0.968650000000     0.274540000000    -0.0821235  
C125     C      0.503580000000     0.676560000000     0.958390000000     0.160648   
C126     C      0.534380000000     0.683240000000     0.902610000000     0.0675626  
C127     C      0.514790000000     0.718270000000     0.953780000000    -0.111756   
C128     C      0.495780000000     0.784180000000     0.911160000000    -0.0830409  
C129     C      0.544580000000     0.725040000000     0.897020000000    -0.0908307  
C130     C      0.536510000000     0.783750000000     0.916560000000     0.030762   
C131     C      0.534500000000     0.742730000000     0.922860000000     0.0478154  
C132     C      0.493620000000     0.819050000000     0.917760000000     0.07307    
C133     C      0.572410000000     0.855980000000     0.929720000000     0.0699152  
C134     C      0.575620000000     0.820640000000     0.924480000000    -0.0796363  
C135     C      0.430480000000     0.273040000000     0.032290000000     0.158605   
C136     C      0.484390000000     0.289290000000     0.989660000000     0.0781507  
C137     C      0.427420000000     0.233640000000     0.040770000000    -0.106557   
C138     C      0.413600000000     0.143930000000     0.030930000000    -0.0801309  
C139     C      0.482010000000     0.250690000000     0.997750000000    -0.0868124  
C140     C      0.453210000000     0.182040000000     0.033110000000     0.0317253  
C141     C      0.453800000000     0.222450000000     0.023830000000     0.0471772  
C142     C      0.415820000000     0.106800000000     0.034520000000     0.0665599  
C143     C      0.494720000000     0.144310000000     0.045300000000     0.0683957  
C144     C      0.493760000000     0.181620000000     0.041510000000    -0.0828371  
C145     C      0.711890000000     0.126020000000     0.489380000000     0.167294   
C146     C      0.679710000000     0.163990000000     0.508040000000     0.0774234  
C147     C      0.747090000000     0.162720000000     0.474470000000    -0.109769   
C148     C      0.826740000000     0.247670000000     0.455300000000    -0.0804631  
C149     C      0.714990000000     0.200990000000     0.494290000000    -0.0899435  
C150     C      0.782070000000     0.239100000000     0.456470000000     0.0329483  
C151     C      0.747770000000     0.200430000000     0.475320000000     0.0504759  
C152     C      0.859060000000     0.286690000000     0.441440000000     0.0721843  
C153     C      0.803480000000     0.307280000000     0.427180000000     0.0709777  
C154     C      0.770280000000     0.268540000000     0.439920000000    -0.0830399  
C155     C      0.276790000000     0.796650000000     0.459310000000     0.178282   
C156     C      0.263650000000     0.830500000000     0.502380000000     0.0798885  
C157     C      0.239820000000     0.758850000000     0.471340000000    -0.101234   
C158     C      0.136740000000     0.711210000000     0.519240000000    -0.0767056  
C159     C      0.225850000000     0.794270000000     0.513370000000    -0.0917087  
C160     C      0.180260000000     0.717940000000     0.516030000000     0.0359391  
C161     C      0.215340000000     0.757500000000     0.499590000000     0.0548082  
C162     C      0.104010000000     0.672770000000     0.533790000000     0.0703548  
C163     C      0.158010000000     0.649910000000     0.545790000000     0.068171   
C164     C      0.191180000000     0.687500000000     0.530820000000    -0.0820924  
C165     C      0.789150000000     0.494750000000     0.494230000000     0.164031   
C166     C      0.837220000000     0.562820000000     0.468950000000     0.077119   
C167     C      0.751970000000     0.495980000000     0.476100000000    -0.110362   
C168     C      0.688310000000     0.488100000000     0.413880000000    -0.0825292  
C169     C      0.800640000000     0.564490000000     0.449810000000    -0.0921049  
C170     C      0.719460000000     0.526280000000     0.427020000000     0.0328217  
C171     C      0.757960000000     0.529460000000     0.451360000000     0.0504786  
C172     C      0.647360000000     0.482580000000     0.397800000000     0.0678456  
C173     C      0.670410000000     0.553300000000     0.401730000000     0.0659191  
C174     C      0.711600000000     0.559910000000     0.418450000000    -0.0774974  
C175     C      0.131170000000     0.415080000000     0.543940000000     0.164078   
C176     C      0.130930000000     0.405220000000     0.482550000000     0.0760608  
C177     C      0.173770000000     0.418480000000     0.550690000000    -0.110549   
C178     C      0.270280000000     0.431540000000     0.555740000000    -0.0807193  
C179     C      0.173030000000     0.407550000000     0.488680000000    -0.0918007  
C180     C      0.246100000000     0.438130000000     0.525150000000     0.0330207  
C181     C      0.196560000000     0.418540000000     0.522180000000     0.0495238  
C182     C      0.317410000000     0.451060000000     0.556190000000     0.066383   
C183     C      0.316000000000     0.485440000000     0.498740000000     0.070573   
C184     C      0.269810000000     0.467170000000     0.497500000000    -0.0852908  
C185     C      0.934390000000     0.524760000000     0.801420000000     0.16339    
C186     C      0.939390000000     0.463230000000     0.802070000000     0.0776413  
C187     C      0.924980000000     0.524430000000     0.763900000000    -0.107098   
C188     C      0.939160000000     0.530610000000     0.683210000000    -0.0797318  
C189     C      0.930960000000     0.462760000000     0.765060000000    -0.0907714  
C190     C      0.917550000000     0.493830000000     0.705420000000     0.0336263  
C191     C      0.923550000000     0.493440000000     0.745340000000     0.0502792  
C192     C      0.940580000000     0.528900000000     0.646290000000     0.0737653  
C193     C      0.897210000000     0.455780000000     0.652670000000     0.0740788  
C194     C      0.894220000000     0.456430000000     0.689230000000    -0.0821499  
C195     C      0.049730000000     0.449450000000     0.168520000000     0.162296   
C196     C      0.027410000000     0.500570000000     0.168700000000     0.0763884  
C197     C      0.053310000000     0.446510000000     0.206550000000    -0.106839   
C198     C      0.030180000000     0.433960000000     0.287740000000    -0.0807783  
C199     C      0.031730000000     0.498830000000     0.206010000000    -0.0916752  
C200     C      0.049620000000     0.471000000000     0.265560000000     0.0303559  
C201     C      0.044780000000     0.471700000000     0.225570000000     0.0490288  
C202     C      0.027720000000     0.435150000000     0.324720000000     0.0658407  
C203     C      0.066500000000     0.508440000000     0.318320000000     0.0665355  
C204     C      0.069940000000     0.508370000000     0.281730000000    -0.0817418  
C205     C      0.693350000000     0.127480000000     0.909170000000     0.16361    
C206     C      0.690450000000     0.152530000000     0.963560000000     0.0771433  
C207     C      0.732340000000     0.165500000000     0.900680000000    -0.107362   
C208     C      0.826980000000     0.252990000000     0.907080000000    -0.0812664  
C209     C      0.728680000000     0.189700000000     0.955980000000    -0.0942204  
C210     C      0.782250000000     0.240960000000     0.912960000000     0.0319103  
C211     C      0.748690000000     0.197540000000     0.923470000000     0.0492888  
C212     C      0.859900000000     0.294920000000     0.908430000000     0.069977   
C213     C      0.804250000000     0.312360000000     0.918290000000     0.071918   
C214     C      0.770780000000     0.271710000000     0.915650000000    -0.0839045  
C215     C      0.175890000000     0.645000000000     0.058650000000     0.165255   
C216     C      0.124630000000     0.667020000000     0.070930000000     0.0752524  
C217     C      0.211880000000     0.684240000000     0.064180000000    -0.111193   
C218     C      0.287090000000     0.764180000000     0.083950000000    -0.0816622  
C219     C      0.160450000000     0.706570000000     0.077450000000    -0.089849   
C220     C      0.243930000000     0.758900000000     0.074250000000     0.0323028  
C221     C      0.204790000000     0.716070000000     0.072820000000     0.0501687  
C222     C      0.324760000000     0.801410000000     0.074480000000     0.0738749  
C223     C      0.279320000000     0.832260000000     0.053800000000     0.0712207  
C224     C      0.240290000000     0.794260000000     0.060840000000    -0.0795697  
C225     C      0.644430000000     0.423300000000     0.996100000000     0.160882   
C226     C      0.689200000000     0.495410000000     0.981270000000     0.0764426  
C227     C      0.679890000000     0.423300000000     0.018740000000    -0.108184   
C228     C      0.764230000000     0.422980000000     0.049750000000    -0.0802138  
C229     C      0.725770000000     0.495610000000     0.001710000000    -0.0918351  
C230     C      0.761000000000     0.459410000000     0.043190000000     0.0326004  
C231     C      0.721380000000     0.459610000000     0.021870000000     0.0496726  
C232     C      0.804810000000     0.424820000000     0.062560000000     0.0774577  
C233     C      0.838710000000     0.497080000000     0.066050000000     0.0721693  
C234     C      0.798010000000     0.496210000000     0.054530000000    -0.0818209  
C235     C      0.165180000000     0.552670000000     0.897040000000     0.165798   
C236     C      0.133040000000     0.480970000000     0.890700000000     0.0744718  
C237     C      0.205930000000     0.554210000000     0.910660000000    -0.103361   
C238     C      0.292530000000     0.551400000000     0.935970000000    -0.0764836  
C239     C      0.173700000000     0.482120000000     0.901870000000    -0.0917869  
C240     C      0.249350000000     0.516540000000     0.934950000000     0.0344336  
C241     C      0.209510000000     0.517960000000     0.915510000000     0.0498497  
C242     C      0.329380000000     0.547170000000     0.951600000000     0.0745397  
C243     C      0.281680000000     0.475680000000     0.966350000000     0.0767147  
C244     C      0.244210000000     0.479140000000     0.952760000000    -0.0816043  
C245     C      0.611960000000     0.667240000000     0.552690000000     0.159306   
C246     C      0.665920000000     0.644660000000     0.552900000000     0.0774309  
C247     C      0.647010000000     0.708520000000     0.554820000000    -0.107225   
C248     C      0.739320000000     0.794810000000     0.563630000000    -0.0800313  
C249     C      0.700820000000     0.684520000000     0.556850000000    -0.0932163  
C250     C      0.728870000000     0.760030000000     0.545540000000     0.0298185  
C251     C      0.691830000000     0.717540000000     0.554740000000     0.0476023  
C252     C      0.778200000000     0.832840000000     0.555300000000     0.0663537  
C253     C      0.793720000000     0.802560000000     0.510720000000     0.0678409  
C254     C      0.755640000000     0.765120000000     0.517850000000    -0.0828381  
C255     C      0.193270000000     0.162170000000     0.463360000000     0.16307    
C256     C      0.193170000000     0.129590000000     0.412730000000     0.0717036  
C257     C      0.229810000000     0.199100000000     0.450570000000    -0.11065    
C258     C      0.327880000000     0.252400000000     0.402160000000    -0.0802137  
C259     C      0.230610000000     0.166050000000     0.399880000000    -0.0883434  
C260     C      0.283000000000     0.242870000000     0.403790000000     0.0305233  
C261     C      0.248000000000     0.201720000000     0.418220000000     0.0481043  
C262     C      0.361730000000     0.294150000000     0.398490000000     0.0669205  
C263     C      0.306890000000     0.315920000000     0.394590000000     0.0706603  
C264     C      0.272600000000     0.275060000000     0.397690000000    -0.0820736  
C265     C      0.780970000000     0.964540000000     0.408860000000     0.164042   
C266     C      0.765710000000     0.943140000000     0.470420000000     0.0791424  
C267     C      0.735040000000     0.951640000000     0.400500000000    -0.105796   
C268     C      0.647720000000     0.954790000000     0.396590000000    -0.0797573  
C269     C      0.720080000000     0.930710000000     0.462720000000    -0.0872363  
C270     C      0.656530000000     0.926600000000     0.419510000000     0.0294974  
C271     C      0.704040000000     0.934990000000     0.427450000000     0.0491094  
C272     C      0.604780000000     0.950760000000     0.393370000000     0.0699078  
C273     C      0.576970000000     0.889170000000     0.432120000000     0.0645308  
C274     C      0.620080000000     0.892620000000     0.436490000000    -0.082592   
C275     C      0.399520000000     0.083450000000     0.541470000000     0.160642   
C276     C      0.370390000000     0.030540000000     0.588960000000     0.0737768  
C277     C      0.359050000000     0.085220000000     0.537940000000    -0.109812   
C278     C      0.259600000000     0.046610000000     0.513270000000    -0.0811212  
C279     C      0.330290000000     0.031980000000     0.586310000000    -0.0915509  
C280     C      0.276210000000     0.050030000000     0.549210000000     0.032638   
C281     C      0.322900000000     0.057350000000     0.558880000000     0.045919   
C282     C      0.213960000000     0.033150000000     0.504680000000     0.0731705  
C283     C      0.200680000000     0.027940000000     0.566200000000     0.0735596  
C284     C      0.246140000000     0.041040000000     0.575740000000    -0.0809685  
C285     C      0.052960000000     0.693760000000     0.426530000000     0.156654   
C286     C      0.993180000000     0.674230000000     0.464280000000     0.0718118  
C287     C      0.057510000000     0.734040000000     0.420020000000    -0.10641    
C288     C      0.070120000000     0.822610000000     0.436010000000    -0.0788985  
C289     C      0.997050000000     0.713490000000     0.458210000000    -0.0919295  
C290     C      0.030980000000     0.785360000000     0.428950000000     0.0291015  
C291     C      0.029080000000     0.744030000000     0.435690000000     0.0454403  
C292     C      0.067720000000     0.859440000000     0.436250000000     0.0661359  
C293     C      0.989980000000     0.823760000000     0.419900000000     0.0681955  
C294     C      0.991180000000     0.786910000000     0.419380000000    -0.0807981  
C295     C      0.895140000000     0.102400000000     0.537940000000     0.163689   
C296     C      0.973720000000     0.143880000000     0.549230000000     0.0753734  
C297     C      0.889880000000     0.137980000000     0.537760000000    -0.106122   
C298     C      0.909920000000     0.232000000000     0.557600000000    -0.0794222  
C299     C      0.969240000000     0.178940000000     0.550060000000    -0.090509   
C300     C      0.926060000000     0.216410000000     0.534140000000     0.0311345  
C301     C      0.927500000000     0.176870000000     0.542550000000     0.0487717  
C302     C      0.916150000000     0.272630000000     0.550580000000     0.0680414  
C303     C      0.952560000000     0.281490000000     0.497530000000     0.0690562  
C304     C      0.946880000000     0.241550000000     0.503660000000    -0.082517   
C305     C      0.893890000000     0.961630000000     0.809570000000     0.161609   
C306     C      0.912210000000     0.907200000000     0.819010000000     0.073325   
C307     C      0.895890000000     0.962460000000     0.772190000000    -0.109273   
C308     C      0.888830000000     0.947760000000     0.692230000000    -0.0801024  
C309     C      0.913940000000     0.907200000000     0.782000000000    -0.0914715  
C310     C      0.916720000000     0.941170000000     0.719420000000     0.0305523  
C311     C      0.907850000000     0.936340000000     0.758210000000     0.0482543  
C312     C      0.899610000000     0.954340000000     0.656150000000     0.0683544  
C313     C      0.964980000000     0.948340000000     0.673320000000     0.0676892  
C314     C      0.954950000000     0.941250000000     0.709440000000    -0.0825136  
C315     C      0.074620000000     0.006830000000     0.318580000000     0.164694   
C316     C      0.012660000000     0.018980000000     0.302940000000     0.0736167  
C317     C      0.083260000000     0.011960000000     0.282060000000    -0.109803   
C318     C      0.062780000000     0.055270000000     0.192890000000    -0.0803071  
C319     C      0.021440000000     0.025290000000     0.266620000000    -0.0916909  
C320     C      0.063100000000     0.023430000000     0.216970000000     0.0336408  
C321     C      0.056610000000     0.021200000000     0.255770000000     0.050045   
C322     C      0.062960000000     0.053600000000     0.155850000000     0.0727694  
C323     C      0.065290000000     0.990520000000     0.166270000000     0.0720479  
C324     C      0.066080000000     0.991670000000     0.203340000000    -0.0834111  
C325     C      0.796340000000     0.803710000000     0.031350000000     0.164069   
C326     C      0.786430000000     0.792970000000     0.969000000000     0.074269   
C327     C      0.755670000000     0.767780000000     0.037780000000    -0.111267   
C328     C      0.688790000000     0.673820000000     0.040530000000    -0.0855842  
C329     C      0.745460000000     0.756790000000     0.974910000000    -0.0933546  
C330     C      0.687680000000     0.705930000000     0.017530000000     0.0275659  
C331     C      0.729780000000     0.744360000000     0.009620000000     0.0489208  
C332     C      0.648920000000     0.637470000000     0.047920000000     0.0676541  
C333     C      0.606780000000     0.665520000000     0.012770000000     0.0627677  
C334     C      0.646180000000     0.702010000000     0.004160000000    -0.0814894  
C335     C      0.165260000000     0.158570000000     0.931490000000     0.16998    
C336     C      0.190300000000     0.166340000000     0.993250000000     0.0846582  
C337     C      0.205780000000     0.192640000000     0.921300000000    -0.113174   
C338     C      0.279220000000     0.281070000000     0.910860000000    -0.0840662  
C339     C      0.231190000000     0.200830000000     0.983570000000    -0.0923223  
C340     C      0.281330000000     0.250480000000     0.935420000000     0.0308377  
C341     C      0.239290000000     0.213760000000     0.947160000000     0.0535086  
C342     C      0.318580000000     0.316070000000     0.900250000000     0.0702759  
C343     C      0.362420000000     0.289990000000     0.935550000000     0.0726739  
C344     C      0.323450000000     0.254600000000     0.947170000000    -0.0773802  
C345     C      0.900410000000     0.068840000000     0.050170000000     0.150297   
C346     C      0.871830000000     0.006130000000     0.087790000000     0.0753554  
C347     C      0.856690000000     0.063890000000     0.044080000000    -0.112339   
C348     C      0.757640000000     0.022760000000     0.014630000000    -0.0799418  
C349     C      0.828560000000     0.001310000000     0.083240000000    -0.0875179  
C350     C      0.773090000000     0.020900000000     0.050570000000     0.0303937  
C351     C      0.820100000000     0.029160000000     0.059720000000     0.0460963  
C352     C      0.712640000000     0.012350000000     0.006150000000     0.0685805  
C353     C      0.697950000000     0.999290000000     0.068000000000     0.0664798  
C354     C      0.742550000000     0.008770000000     0.077370000000    -0.0780814  
C355     C      0.274280000000     0.928460000000     0.916740000000     0.161386   
C356     C      0.267210000000     0.935330000000     0.977440000000     0.0732     
C357     C      0.229360000000     0.919040000000     0.908570000000    -0.108824   
C358     C      0.120110000000     0.883520000000     0.946280000000    -0.0827035  
C359     C      0.221970000000     0.924530000000     0.970130000000    -0.0920084  
C360     C      0.156840000000     0.911410000000     0.925890000000     0.0281039  
C361     C      0.202830000000     0.917180000000     0.935200000000     0.0488367  
C362     C      0.078900000000     0.883550000000     0.939790000000     0.0640191  
C363     C      0.109470000000     0.936840000000     0.892870000000     0.0687322  
C364     C      0.150330000000     0.936710000000     0.897810000000    -0.0822696  
C365     C      0.972160000000     0.785880000000     0.042530000000     0.166082   
C366     C      0.906060000000     0.769920000000     0.004670000000     0.0812289  
C367     C      0.959270000000     0.743770000000     0.047960000000    -0.11012    
C368     C      0.927420000000     0.652780000000     0.055450000000    -0.0848416  
C369     C      0.892650000000     0.728010000000     0.009680000000    -0.0930994  
C370     C      0.914480000000     0.673210000000     0.026800000000     0.0310704  
C371     C      0.920490000000     0.714760000000     0.030000000000     0.0507144  
C372     C      0.934460000000     0.620500000000     0.048970000000     0.0704192  
C373     C      0.910390000000     0.624690000000     0.987600000000     0.0701048  
C374     C      0.903500000000     0.657350000000     0.993010000000    -0.0834928  
C375     C      0.055090000000     0.189370000000     0.984520000000     0.181339   
C376     C      0.020750000000     0.177060000000     0.925510000000     0.0857303  
C377     C      0.059530000000     0.228730000000     0.980520000000    -0.113064   
C378     C      0.075560000000     0.314320000000     0.969530000000    -0.0824739  
C379     C      0.027260000000     0.217430000000     0.920230000000    -0.0916794  
C380     C      0.045920000000     0.283780000000     0.946640000000     0.0331363  
C381     C      0.045340000000     0.243370000000     0.948490000000     0.0559648  
C382     C      0.067830000000     0.346510000000     0.974890000000     0.0748896  
C383     C      0.008080000000     0.324170000000     0.930120000000     0.0733303  
C384     C      0.012940000000     0.290050000000     0.925770000000    -0.0821393  
H1       H      0.999480000000     0.981560000000     0.898730000000     0.206432   
H2       H      0.942400000000     0.040540000000     0.992800000000     0.200811   
H3       H      0.925800000000     0.887800000000     0.026710000000     0.216639   
H4       H      0.093790000000     0.018430000000     0.030130000000     0.197203   
H5       H      0.903030000000     0.054290000000     0.931290000000     0.14095    
H6       H      0.822930000000     0.956970000000     0.992900000000     0.212795   
H7       H      0.869690000000     0.913770000000     0.084910000000     0.153769   
H8       H      0.963350000000     0.884000000000     0.106530000000     0.207669   
H9       H      0.087520000000     0.924360000000     0.033050000000     0.155296   
H10      H      0.153060000000     0.013870000000     0.997160000000     0.199773   
H11      H      0.110800000000     0.044820000000     0.889230000000     0.152273   
H12      H      0.013970000000     0.067430000000     0.863720000000     0.208837   
H13      H      0.013680000000     0.886240000000     0.112070000000     0.22015    
H14      H      0.131590000000     0.969840000000     0.977080000000     0.203664   
H15      H      0.969500000000     0.075200000000     0.860870000000     0.220804   
H16      H      0.862080000000     0.006440000000     0.995620000000     0.2011     
H17      H      0.882080000000     0.920730000000     0.463330000000     0.198507   
H18      H      0.035500000000     0.053780000000     0.418470000000     0.193417   
H19      H      0.999590000000     0.034420000000     0.559460000000     0.191694   
H20      H      0.042370000000     0.926250000000     0.510580000000     0.202171   
H21      H      0.974700000000     0.067460000000     0.381120000000     0.135241   
H22      H      0.999950000000     0.123400000000     0.440900000000     0.213221   
H23      H      0.084790000000     0.107640000000     0.549800000000     0.136049   
H24      H      0.081400000000     0.050130000000     0.601100000000     0.193137   
H25      H      0.010340000000     0.903840000000     0.598420000000     0.142819   
H26      H      0.989070000000     0.845950000000     0.523090000000     0.196914   
H27      H      0.885200000000     0.839030000000     0.441430000000     0.134487   
H28      H      0.886740000000     0.912910000000     0.382120000000     0.194537   
H29      H      0.091640000000     0.012540000000     0.621030000000     0.206562   
H30      H      0.956590000000     0.846840000000     0.552860000000     0.200731   
H31      H      0.885120000000     0.952200000000     0.356090000000     0.219471   
H32      H      0.050030000000     0.134670000000     0.427400000000     0.202555   
H33      H      0.955400000000     0.436230000000     0.066320000000     0.204713   
H34      H      0.899460000000     0.445460000000     0.924430000000     0.194276   
H35      H      0.027380000000     0.587610000000     0.981950000000     0.198393   
H36      H      0.072540000000     0.469370000000     0.966080000000     0.201006   
H37      H      0.825110000000     0.419930000000     0.958910000000     0.133601   
H38      H      0.853600000000     0.499380000000     0.931820000000     0.201298   
H39      H      0.019340000000     0.604060000000     0.904870000000     0.141951   
H40      H      0.103070000000     0.624260000000     0.919880000000     0.213944   
H41      H      0.147310000000     0.534610000000     0.002500000000     0.151107   
H42      H      0.120950000000     0.481250000000     0.058560000000     0.221787   
H43      H      0.964350000000     0.367310000000     0.070740000000     0.131622   
H44      H      0.879220000000     0.339330000000     0.038390000000     0.197055   
H45      H      0.143440000000     0.635670000000     0.952820000000     0.22657    
H46      H      0.111880000000     0.437760000000     0.042330000000     0.214299   
H47      H      0.832060000000     0.342810000000     0.036080000000     0.204533   
H48      H      0.875490000000     0.532260000000     0.895700000000     0.2201     
H49      H      0.887070000000     0.460650000000     0.524530000000     0.211637   
H50      H      0.952260000000     0.460850000000     0.397050000000     0.195528   
H51      H      0.060100000000     0.578470000000     0.484810000000     0.203271   
H52      H      0.015510000000     0.419080000000     0.530880000000     0.212612   
H53      H      0.871750000000     0.453970000000     0.374940000000     0.133433   
H54      H      0.966730000000     0.568460000000     0.370110000000     0.214202   
H55      H      0.111750000000     0.592310000000     0.430270000000     0.134863   
H56      H      0.159730000000     0.538330000000     0.502880000000     0.212556   
H57      H      0.066370000000     0.471730000000     0.591220000000     0.145266   
H58      H      0.994400000000     0.400240000000     0.602080000000     0.206571   
H59      H      0.846490000000     0.370890000000     0.528960000000     0.138432   
H60      H      0.797670000000     0.397670000000     0.462040000000     0.208292   
H61      H      0.149560000000     0.577940000000     0.491100000000     0.196968   
H62      H      0.947740000000     0.390870000000     0.620720000000     0.211728   
H63      H      0.799970000000     0.419720000000     0.420060000000     0.203588   
H64      H      0.983720000000     0.542700000000     0.348010000000     0.20659    
H65      H      0.476980000000     0.924680000000     0.920930000000     0.197633   
H66      H      0.449200000000     0.912880000000     0.063100000000     0.196853   
H67      H      0.599550000000     0.042710000000     0.011950000000     0.19916    
H68      H      0.437640000000     0.035550000000     0.967040000000     0.202834   
H69      H      0.454810000000     0.843640000000     0.056780000000     0.133474   
H70      H      0.518150000000     0.895420000000     0.097810000000     0.20303    
H71      H      0.591490000000     0.056830000000     0.082310000000     0.130377   
H72      H      0.601230000000     0.133750000000     0.030200000000     0.195013   
H73      H      0.528300000000     0.112330000000     0.924590000000     0.152607   
H74      H      0.408790000000     0.022750000000     0.868250000000     0.232023   
H75      H      0.395840000000     0.902530000000     0.894440000000     0.136982   
H76      H      0.365500000000     0.844630000000     0.949010000000     0.207858   
H77      H      0.581950000000     0.155460000000     0.996140000000     0.204111   
H78      H      0.444470000000     0.059130000000     0.895230000000     0.21334    
H79      H      0.392330000000     0.816810000000     0.953810000000     0.211153   
H80      H      0.571080000000     0.928920000000     0.110380000000     0.221709   
H81      H      0.388800000000     0.947120000000     0.441560000000     0.192392   
H82      H      0.467430000000     0.976160000000     0.577650000000     0.208431   
H83      H      0.527380000000     0.910890000000     0.491210000000     0.19778    
H84      H      0.561630000000     0.069650000000     0.456610000000     0.206186   
H85      H      0.365480000000     0.898690000000     0.576630000000     0.134793   
H86      H      0.432330000000     0.883110000000     0.605390000000     0.194345   
H87      H      0.592810000000     0.948530000000     0.569010000000     0.148543   
H88      H      0.607630000000     0.943030000000     0.501540000000     0.197402   
H89      H      0.613480000000     0.049140000000     0.405470000000     0.138411   
H90      H      0.530680000000     0.063790000000     0.370130000000     0.206673   
H91      H      0.384920000000     0.011760000000     0.404110000000     0.134761   
H92      H      0.339440000000     0.976920000000     0.469230000000     0.201271   
H93      H      0.646660000000     0.980150000000     0.475410000000     0.224682   
H94      H      0.488560000000     0.074890000000     0.361510000000     0.222904   
H95      H      0.345090000000     0.996950000000     0.508150000000     0.211609   
H96      H      0.479280000000     0.883070000000     0.623380000000     0.207771   
H97      H      0.393270000000     0.450240000000     0.011990000000     0.202614   
H98      H      0.456310000000     0.456030000000     0.883100000000     0.198916   
H99      H      0.557590000000     0.581530000000     0.965970000000     0.193369   
H100     H      0.540650000000     0.430390000000     0.013420000000     0.205953   
H101     H      0.383060000000     0.469260000000     0.866950000000     0.134936   
H102     H      0.451800000000     0.554790000000     0.854620000000     0.20436    
H103     H      0.606250000000     0.596340000000     0.904980000000     0.129643   
H104     H      0.647860000000     0.602660000000     0.975940000000     0.188076   
H105     H      0.593910000000     0.487770000000     0.068450000000     0.141549   
H106     H      0.508310000000     0.432630000000     0.103160000000     0.20923    
H107     H      0.365430000000     0.368770000000     0.037810000000     0.139868   
H108     H      0.332520000000     0.358150000000     0.972190000000     0.203909   
H109     H      0.672280000000     0.581030000000     0.005400000000     0.202073   
H110     H      0.514720000000     0.397970000000     0.083630000000     0.208633   
H111     H      0.301830000000     0.377740000000     0.948720000000     0.209083   
H112     H      0.472970000000     0.533340000000     0.831440000000     0.20024    
H113     H      0.436910000000     0.430650000000     0.544190000000     0.202019   
H114     H      0.413410000000     0.455300000000     0.396360000000     0.202549   
H115     H      0.538070000000     0.585730000000     0.469730000000     0.201122   
H116     H      0.571880000000     0.459720000000     0.460000000000     0.201527   
H117     H      0.314320000000     0.420080000000     0.447240000000     0.135397   
H118     H      0.375880000000     0.518160000000     0.400260000000     0.193282   
H119     H      0.552310000000     0.605780000000     0.393980000000     0.132532   
H120     H      0.636090000000     0.623780000000     0.427370000000     0.192984   
H121     H      0.645170000000     0.522630000000     0.509040000000     0.140377   
H122     H      0.602640000000     0.440330000000     0.539450000000     0.206664   
H123     H      0.446110000000     0.343180000000     0.524480000000     0.144915   
H124     H      0.362310000000     0.345820000000     0.516110000000     0.203599   
H125     H      0.672210000000     0.614940000000     0.455870000000     0.203196   
H126     H      0.566270000000     0.395500000000     0.560530000000     0.225743   
H127     H      0.349830000000     0.376230000000     0.536350000000     0.200069   
H128     H      0.407130000000     0.556730000000     0.370470000000     0.205664   
H129     H      0.522750000000     0.408390000000     0.825840000000     0.0302397  
H130     H      0.495120000000     0.506910000000     0.640510000000     0.0313327  
H131     H      0.577750000000     0.537450000000     0.745930000000     0.0557441  
H132     H      0.507040000000     0.506100000000     0.704510000000     0.0564636  
H133     H      0.523110000000     0.405100000000     0.761290000000     0.0574453  
H134     H      0.572490000000     0.433090000000     0.703420000000     0.0792622  
H135     H      0.576790000000     0.539840000000     0.809660000000     0.0306316  
H136     H      0.468620000000     0.443050000000     0.296030000000     0.0304547  
H137     H      0.461990000000     0.553890000000     0.111080000000     0.0347713  
H138     H      0.429510000000     0.546610000000     0.232970000000     0.0551504  
H139     H      0.465570000000     0.558730000000     0.175230000000     0.058888   
H140     H      0.451610000000     0.442180000000     0.232320000000     0.0579579  
H141     H      0.385380000000     0.426360000000     0.190880000000     0.0800119  
H142     H      0.447380000000     0.547120000000     0.297600000000     0.0258958  
H143     H      0.437220000000     0.637190000000     0.435540000000     0.0275673  
H144     H      0.496840000000     0.807280000000     0.555720000000     0.0255399  
H145     H      0.439530000000     0.661360000000     0.562460000000     0.0605905  
H146     H      0.493480000000     0.741850000000     0.549150000000     0.0634508  
H147     H      0.426540000000     0.694050000000     0.449160000000     0.0591084  
H148     H      0.368020000000     0.702410000000     0.487450000000     0.0808935  
H149     H      0.448750000000     0.604830000000     0.548560000000     0.0425972  
H150     H      0.502640000000     0.329540000000     0.397690000000     0.0299899  
H151     H      0.552490000000     0.172030000000     0.515770000000     0.0380209  
H152     H      0.602920000000     0.308770000000     0.492650000000     0.0555431  
H153     H      0.562920000000     0.240150000000     0.507840000000     0.0622766  
H154     H      0.516140000000     0.271900000000     0.396110000000     0.0578911  
H155     H      0.556770000000     0.237590000000     0.392730000000     0.0768385  
H156     H      0.584710000000     0.363170000000     0.495250000000     0.0256338  
H157     H      0.567460000000     0.077870000000     0.642430000000     0.0308861  
H158     H      0.589570000000     0.988790000000     0.842070000000     0.0341514  
H159     H      0.563790000000     0.963230000000     0.726430000000     0.0538675  
H160     H      0.606630000000     0.998010000000     0.779780000000     0.0603065  
H161     H      0.572650000000     0.083620000000     0.706650000000     0.0590721  
H162     H      0.517000000000     0.048390000000     0.751630000000     0.0797744  
H163     H      0.559520000000     0.958660000000     0.662490000000     0.0254431  
H164     H      0.413510000000     0.880660000000     0.338730000000     0.0373298  
H165     H      0.389680000000     0.966970000000     0.139160000000     0.0293914  
H166     H      0.410820000000     0.994350000000     0.257090000000     0.0557404  
H167     H      0.368660000000     0.954240000000     0.200830000000     0.0579221  
H168     H      0.412080000000     0.878260000000     0.274100000000     0.0595912  
H169     H      0.477880000000     0.929590000000     0.234140000000     0.0789361  
H170     H      0.412760000000     0.996250000000     0.321430000000     0.0245432  
H171     H      0.460710000000     0.817000000000     0.915300000000     0.0203493  
H172     H      0.542920000000     0.670890000000     0.881870000000     0.0283665  
H173     H      0.607710000000     0.821240000000     0.929230000000     0.0552489  
H174     H      0.559120000000     0.742970000000     0.872300000000     0.0563332  
H175     H      0.464900000000     0.756330000000     0.904970000000     0.0578229  
H176     H      0.505630000000     0.731080000000     0.973790000000     0.0817435  
H177     H      0.602620000000     0.883240000000     0.938120000000     0.0297318  
H178     H      0.384840000000     0.078140000000     0.030840000000     0.0276047  
H179     H      0.507360000000     0.309780000000     0.969420000000     0.0472417  
H180     H      0.525020000000     0.210290000000     0.044140000000     0.0559473  
H181     H      0.502470000000     0.243000000000     0.983540000000     0.0604284  
H182     H      0.381470000000     0.142960000000     0.024640000000     0.0542781  
H183     H      0.404200000000     0.211740000000     0.060300000000     0.0770137  
H184     H      0.527340000000     0.146120000000     0.051000000000     0.0259313  
H185     H      0.893630000000     0.293100000000     0.443080000000     0.0314003  
H186     H      0.653270000000     0.165770000000     0.519890000000     0.0301147  
H187     H      0.735800000000     0.262460000000     0.438190000000     0.054879   
H188     H      0.715520000000     0.229780000000     0.497340000000     0.0569494  
H189     H      0.837420000000     0.225580000000     0.467010000000     0.0567087  
H190     H      0.773330000000     0.161530000000     0.461850000000     0.0800884  
H191     H      0.793230000000     0.330090000000     0.416730000000     0.0223266  
H192     H      0.069990000000     0.667750000000     0.533450000000     0.0331176  
H193     H      0.271510000000     0.857530000000     0.515920000000     0.0324029  
H194     H      0.225100000000     0.692490000000     0.530350000000     0.0646445  
H195     H      0.206720000000     0.794630000000     0.534350000000     0.0581891  
H196     H      0.127560000000     0.734780000000     0.509110000000     0.0564097  
H197     H      0.229570000000     0.730880000000     0.458380000000     0.0897678  
H198     H      0.167790000000     0.626660000000     0.555720000000     0.0313358  
H199     H      0.622680000000     0.451750000000     0.390720000000     0.0282311  
H200     H      0.870600000000     0.588470000000     0.464190000000     0.021783   
H201     H      0.735470000000     0.590350000000     0.426780000000     0.0478877  
H202     H      0.806460000000     0.591560000000     0.431820000000     0.0533765  
H203     H      0.694340000000     0.461860000000     0.417910000000     0.0539415  
H204     H      0.718630000000     0.470160000000     0.480270000000     0.0764914  
H205     H      0.664370000000     0.579470000000     0.396560000000     0.0179388  
H206     H      0.335470000000     0.443180000000     0.578560000000     0.0196953  
H207     H      0.116120000000     0.402180000000     0.455270000000     0.0246058  
H208     H      0.252790000000     0.475360000000     0.474530000000     0.0515977  
H209     H      0.189080000000     0.405400000000     0.466330000000     0.0559951  
H210     H      0.252990000000     0.410280000000     0.578260000000     0.0549412  
H211     H      0.190130000000     0.424160000000     0.577360000000     0.0790789  
H212     H      0.333060000000     0.506380000000     0.475850000000     0.0190873  
H213     H      0.959740000000     0.557780000000     0.630360000000     0.0315668  
H214     H      0.944420000000     0.438150000000     0.815510000000     0.029874   
H215     H      0.875440000000     0.427380000000     0.705030000000     0.0549022  
H216     H      0.931380000000     0.438660000000     0.751940000000     0.0570293  
H217     H      0.957400000000     0.560320000000     0.694480000000     0.0585564  
H218     H      0.920100000000     0.549070000000     0.749290000000     0.0780221  
H219     H      0.880280000000     0.425810000000     0.641730000000     0.0293156  
H220     H      0.010120000000     0.405940000000     0.340660000000     0.0276606  
H221     H      0.016710000000     0.522220000000     0.155620000000     0.0295871  
H222     H      0.086730000000     0.537720000000     0.265820000000     0.0563784  
H223     H      0.024140000000     0.518540000000     0.219550000000     0.0558386  
H224     H      0.014480000000     0.404360000000     0.276330000000     0.0558414  
H225     H      0.064400000000     0.425760000000     0.221060000000     0.0780366  
H226     H      0.081280000000     0.538360000000     0.329130000000     0.0330302  
H227     H      0.894770000000     0.303120000000     0.906830000000     0.0265116  
H228     H      0.675650000000     0.148700000000     0.988860000000     0.017086   
H229     H      0.736350000000     0.263760000000     0.919150000000     0.0553386  
H230     H      0.741240000000     0.213260000000     0.974880000000     0.0552259  
H231     H      0.836950000000     0.230000000000     0.904550000000     0.0561592  
H232     H      0.747410000000     0.171050000000     0.875240000000     0.0785517  
H233     H      0.794310000000     0.334720000000     0.923390000000     0.0190025  
H234     H      0.357430000000     0.803180000000     0.079920000000     0.0217104  
H235     H      0.090660000000     0.661600000000     0.072340000000     0.0253448  
H236     H      0.207810000000     0.792120000000     0.053330000000     0.054166   
H237     H      0.153260000000     0.729840000000     0.084810000000     0.0572253  
H238     H      0.292040000000     0.738840000000     0.096650000000     0.0576342  
H239     H      0.245380000000     0.689690000000     0.060820000000     0.0799995  
H240     H      0.275480000000     0.858340000000     0.041330000000     0.0282849  
H241     H      0.806180000000     0.396100000000     0.065070000000     0.0210617  
H242     H      0.694280000000     0.524560000000     0.967180000000     0.021953   
H243     H      0.796710000000     0.524840000000     0.052670000000     0.0516816  
H244     H      0.757320000000     0.524210000000     0.001250000000     0.0530301  
H245     H      0.737150000000     0.393310000000     0.042530000000     0.0545686  
H246     H      0.674410000000     0.394480000000     0.033470000000     0.0741693  
H247     H      0.867560000000     0.526760000000     0.071360000000     0.0291594  
H248     H      0.362580000000     0.573850000000     0.949640000000     0.0402581  
H249     H      0.105070000000     0.451390000000     0.883820000000     0.0290977  
H250     H      0.211550000000     0.451910000000     0.955220000000     0.0515835  
H251     H      0.175890000000     0.454130000000     0.901590000000     0.0555914  
H252     H      0.298620000000     0.581240000000     0.923140000000     0.058004   
H253     H      0.233960000000     0.583360000000     0.918010000000     0.0819429  
H254     H      0.276550000000     0.445470000000     0.977680000000     0.0225436  
H255     H      0.786670000000     0.858830000000     0.570560000000     0.0295655  
H256     H      0.674780000000     0.620610000000     0.551450000000     0.0209254  
H257     H      0.747780000000     0.739710000000     0.502030000000     0.0517213  
H258     H      0.735080000000     0.689980000000     0.558110000000     0.0560205  
H259     H      0.718800000000     0.792250000000     0.584820000000     0.0543797  
H260     H      0.639160000000     0.733470000000     0.554250000000     0.0747786  
H261     H      0.813280000000     0.804060000000     0.489190000000     0.0283885  
H262     H      0.396420000000     0.300710000000     0.400330000000     0.02934    
H263     H      0.178850000000     0.103310000000     0.396620000000     0.03896    
H264     H      0.238200000000     0.268820000000     0.398090000000     0.0573159  
H265     H      0.244310000000     0.166900000000     0.374920000000     0.0600874  
H266     H      0.337090000000     0.228140000000     0.406620000000     0.0566512  
H267     H      0.244550000000     0.225820000000     0.466200000000     0.0789397  
H268     H      0.297270000000     0.339920000000     0.392160000000     0.0279365  
H269     H      0.600090000000     0.974350000000     0.376420000000     0.0289427  
H270     H      0.775740000000     0.938610000000     0.498310000000     0.0370433  
H271     H      0.625100000000     0.869600000000     0.453960000000     0.0523444  
H272     H      0.697710000000     0.918810000000     0.484640000000     0.0561519  
H273     H      0.674410000000     0.981450000000     0.382760000000     0.0633354  
H274     H      0.723990000000     0.956150000000     0.372940000000     0.0785754  
H275     H      0.550260000000     0.863830000000     0.447150000000     0.0223334  
H276     H      0.202810000000     0.030420000000     0.476490000000     0.0363509  
H277     H      0.373180000000     0.007970000000     0.608870000000     0.0286862  
H278     H      0.257490000000     0.043380000000     0.603880000000     0.0552221  
H279     H      0.303790000000     0.010400000000     0.603640000000     0.057769   
H280     H      0.281320000000     0.052510000000     0.491850000000     0.0563859  
H281     H      0.354870000000     0.106240000000     0.517120000000     0.077339   
H282     H      0.178720000000     0.020950000000     0.587750000000     0.027572   
H283     H      0.098040000000     0.887060000000     0.443820000000     0.0309008  
H284     H      0.966820000000     0.651950000000     0.481490000000     0.0301243  
H285     H      0.960350000000     0.759140000000     0.412990000000     0.0536399  
H286     H      0.974650000000     0.719870000000     0.471250000000     0.0544164  
H287     H      0.101700000000     0.822810000000     0.443430000000     0.0545843  
H288     H      0.083460000000     0.757520000000     0.403190000000     0.0787092  
H289     H      0.957710000000     0.822520000000     0.413410000000     0.0312827  
H290     H      0.903960000000     0.283930000000     0.569600000000     0.0309577  
H291     H      0.007480000000     0.147990000000     0.553810000000     0.030927   
H292     H      0.960070000000     0.230730000000     0.485010000000     0.0572245  
H293     H      0.999060000000     0.208310000000     0.554390000000     0.0616064  
H294     H      0.894070000000     0.213560000000     0.581760000000     0.0580136  
H295     H      0.856920000000     0.135500000000     0.532440000000     0.0825464  
H296     H      0.969750000000     0.299510000000     0.473660000000     0.0319612  
H297     H      0.877130000000     0.959360000000     0.636040000000     0.0346041  
H298     H      0.919940000000     0.885610000000     0.836270000000     0.0268924  
H299     H      0.977830000000     0.936900000000     0.729550000000     0.0523892  
H300     H      0.921780000000     0.885450000000     0.772190000000     0.055702   
H301     H      0.858790000000     0.947760000000     0.698750000000     0.0571526  
H302     H      0.888960000000     0.984060000000     0.754220000000     0.0782938  
H303     H      0.995260000000     0.948440000000     0.667230000000     0.0236702  
H304     H      0.061010000000     0.078040000000     0.138060000000     0.0385596  
H305     H      0.984430000000     0.022000000000     0.309560000000     0.0273279  
H306     H      0.066560000000     0.966570000000     0.221110000000     0.0580729  
H307     H      0.999700000000     0.031970000000     0.246990000000     0.0596001  
H308     H      0.061150000000     0.080690000000     0.202550000000     0.05845    
H309     H      0.111030000000     0.008930000000     0.274320000000     0.0781644  
H310     H      0.065870000000     0.964390000000     0.156920000000     0.0282431  
H311     H      0.651260000000     0.612630000000     0.064770000000     0.0237777  
H312     H      0.797230000000     0.802430000000     0.941680000000     0.0260953  
H313     H      0.644240000000     0.726880000000     0.987100000000     0.0556646  
H314     H      0.726290000000     0.738640000000     0.952600000000     0.0536481  
H315     H      0.720450000000     0.676420000000     0.052020000000     0.0536044  
H316     H      0.744810000000     0.757460000000     0.065040000000     0.0805499  
H317     H      0.575370000000     0.663120000000     0.000930000000     0.0400994  
H318     H      0.315270000000     0.339710000000     0.882210000000     0.027106   
H319     H      0.185700000000     0.155990000000     0.021560000000     0.0319634  
H320     H      0.326260000000     0.230880000000     0.965390000000     0.0607533  
H321     H      0.256290000000     0.217160000000     0.004340000000     0.0677379  
H322     H      0.247190000000     0.278630000000     0.900710000000     0.0561333  
H323     H      0.210820000000     0.203030000000     0.893040000000     0.0799565  
H324     H      0.394440000000     0.292770000000     0.946130000000     0.0377135  
H325     H      0.702370000000     0.014220000000     0.977910000000     0.036229   
H326     H      0.876340000000     0.982710000000     0.105170000000     0.0272201  
H327     H      0.753110000000     0.006840000000     0.105510000000     0.0565503  
H328     H      0.801450000000     0.974510000000     0.096580000000     0.0607926  
H329     H      0.780000000000     0.031380000000     0.993050000000     0.0548558  
H330     H      0.851340000000     0.087140000000     0.027270000000     0.0766155  
H331     H      0.675680000000     0.990320000000     0.089730000000     0.0303575  
H332     H      0.052020000000     0.863320000000     0.957350000000     0.0375126  
H333     H      0.280460000000     0.941980000000     0.004830000000     0.0290656  
H334     H      0.177650000000     0.958410000000     0.881210000000     0.0588553  
H335     H      0.202620000000     0.923710000000     0.991500000000     0.0547964  
H336     H      0.123700000000     0.862970000000     0.967900000000     0.0589377  
H337     H      0.214890000000     0.912240000000     0.881460000000     0.0787814  
H338     H      0.106760000000     0.958810000000     0.872220000000     0.0289532  
H339     H      0.946710000000     0.606820000000     0.071540000000     0.0300643  
H340     H      0.883710000000     0.778860000000     0.988050000000     0.0308068  
H341     H      0.893270000000     0.672100000000     0.970010000000     0.0542746  
H342     H      0.861730000000     0.706340000000     0.996170000000     0.0542092  
H343     H      0.934850000000     0.663340000000     0.082230000000     0.0550731  
H344     H      0.982140000000     0.734550000000     0.063210000000     0.0770478  
H345     H      0.903840000000     0.614870000000     0.960570000000     0.0304572  
H346     H      0.089930000000     0.368340000000     0.994130000000     0.0213344  
H347     H      0.004840000000     0.157600000000     0.903370000000     0.0286921  
H348     H      0.989050000000     0.267710000000     0.907730000000     0.0540808  
H349     H      0.016970000000     0.227600000000     0.894400000000     0.0569978  
H350     H      0.103590000000     0.312730000000     0.984520000000     0.05592    
H351     H      0.073680000000     0.247290000000     0.003270000000     0.0834227  
H352     H      0.981050000000     0.327030000000     0.914400000000     0.0300295  
N1       N      0.527050000000     0.470870000000     0.633590000000    -0.19939    
N2       N      0.547380000000     0.474000000000     0.822220000000    -0.191126   
N3       N      0.570480000000     0.434270000000     0.632930000000    -0.0313151  
N4       N      0.424920000000     0.487430000000     0.114290000000    -0.201396   
N5       N      0.458910000000     0.494920000000     0.301850000000    -0.191995   
N6       N      0.371510000000     0.412860000000     0.121770000000    -0.0311448  
N7       N      0.435760000000     0.793410000000     0.523860000000    -0.204264   
N8       N      0.445330000000     0.617690000000     0.490880000000    -0.191644   
N9       N      0.358000000000     0.766890000000     0.498790000000    -0.031688   
N10      N      0.544770000000     0.162970000000     0.459280000000    -0.200348   
N11      N      0.540760000000     0.348870000000     0.447590000000    -0.194314   
N12      N      0.548470000000     0.163010000000     0.394160000000    -0.0315712  
N13      N      0.542770000000     0.012300000000     0.833210000000    -0.19831    
N14      N      0.561170000000     0.017110000000     0.647590000000    -0.190994   
N15      N      0.498990000000     0.049080000000     0.817770000000    -0.03136    
N16      N      0.446520000000     0.956520000000     0.150510000000    -0.199292   
N17      N      0.415260000000     0.939480000000     0.334940000000    -0.190457   
N18      N      0.509660000000     0.943100000000     0.171240000000    -0.0327977  
N19      N      0.513620000000     0.658680000000     0.932840000000    -0.197553   
N20      N      0.531140000000     0.853830000000     0.929060000000    -0.190013   
N21      N      0.479740000000     0.653400000000     0.989750000000    -0.0306168  
N22      N      0.460290000000     0.301450000000     0.007460000000    -0.1947     
N23      N      0.456410000000     0.107220000000     0.040160000000    -0.189866   
N24      N      0.399230000000     0.280980000000     0.047770000000    -0.0307808  
N25      N      0.676130000000     0.126660000000     0.502790000000    -0.200441   
N26      N      0.847970000000     0.317330000000     0.430730000000    -0.192266   
N27      N      0.714670000000     0.088420000000     0.491290000000    -0.0320568  
N28      N      0.291640000000     0.831050000000     0.478200000000    -0.197222   
N29      N      0.113940000000     0.641340000000     0.544660000000    -0.189637   
N30      N      0.295860000000     0.799210000000     0.426080000000    -0.029159   
N31      N      0.831580000000     0.526710000000     0.487650000000    -0.204315   
N32      N      0.637140000000     0.514100000000     0.395070000000    -0.196942   
N33      N      0.782630000000     0.459230000000     0.518550000000    -0.03487    
N34      N      0.113420000000     0.414280000000     0.508930000000    -0.203267   
N35      N      0.339180000000     0.475390000000     0.526650000000    -0.192239   
N36      N      0.106930000000     0.413390000000     0.573710000000    -0.0320202  
N37      N      0.941240000000     0.493750000000     0.820600000000    -0.199433   
N38      N      0.922210000000     0.491510000000     0.631710000000    -0.190317   
N39      N      0.940160000000     0.559800000000     0.818060000000    -0.0329865  
N40      N      0.035690000000     0.475990000000     0.149530000000    -0.197229   
N41      N      0.043360000000     0.472210000000     0.339370000000    -0.190125   
N42      N      0.062780000000     0.425430000000     0.150710000000    -0.031653   
N43      N      0.671560000000     0.122210000000     0.939940000000    -0.201219   
N44      N      0.848630000000     0.323280000000     0.917170000000    -0.19262    
N45      N      0.674140000000     0.097560000000     0.882860000000    -0.0333002  
N46      N      0.132340000000     0.637700000000     0.059180000000    -0.202323   
N47      N      0.320740000000     0.834490000000     0.057960000000    -0.191509   
N48      N      0.185460000000     0.612350000000     0.053710000000    -0.033389   
N49      N      0.648370000000     0.460010000000     0.979090000000    -0.202331   
N50      N      0.842830000000     0.462180000000     0.066790000000    -0.193995   
N51      N      0.604290000000     0.384470000000     0.992160000000    -0.0332293  
N52      N      0.127430000000     0.514710000000     0.892520000000    -0.203525   
N53      N      0.323990000000     0.508940000000     0.964200000000    -0.19103    
N54      N      0.163890000000     0.590860000000     0.888010000000    -0.0343481  
N55      N      0.622090000000     0.636440000000     0.548170000000    -0.200128   
N56      N      0.806250000000     0.835890000000     0.530150000000    -0.189794   
N57      N      0.566410000000     0.659370000000     0.551350000000    -0.0336491  
N58      N      0.172950000000     0.128440000000     0.442930000000    -0.197893   
N59      N      0.351270000000     0.325480000000     0.397750000000    -0.190799   
N60      N      0.180060000000     0.159580000000     0.499120000000    -0.0309173  
N61      N      0.796310000000     0.959640000000     0.443940000000    -0.194381   
N62      N      0.570290000000     0.919580000000     0.412500000000    -0.195239   
N63      N      0.811220000000     0.985960000000     0.380470000000    -0.0336098  
N64      N      0.403100000000     0.053290000000     0.564780000000    -0.203726   
N65      N      0.184380000000     0.023190000000     0.530950000000    -0.187454   
N66      N      0.432970000000     0.108930000000     0.516350000000    -0.0332845  
N67      N      0.019990000000     0.663620000000     0.448240000000    -0.196359   
N68      N      0.027340000000     0.859410000000     0.430070000000    -0.188277   
N69      N      0.085940000000     0.686620000000     0.412950000000    -0.0310138  
N70      N      0.937780000000     0.106390000000     0.540820000000    -0.197202   
N71      N      0.938070000000     0.297550000000     0.520980000000    -0.186189   
N72      N      0.855780000000     0.063450000000     0.532250000000    -0.0326544  
N73      N      0.905820000000     0.936270000000     0.832950000000    -0.198711   
N74      N      0.937710000000     0.955060000000     0.646710000000    -0.189855   
N75      N      0.877550000000     0.986370000000     0.822440000000    -0.0329492  
N76      N      0.038460000000     0.009370000000     0.329060000000    -0.199612   
N77      N      0.061910000000     0.020350000000     0.142580000000    -0.189721   
N78      N      0.103920000000     0.998080000000     0.343960000000    -0.0323592  
N79      N      0.810660000000     0.817120000000     0.996640000000    -0.200853   
N80      N      0.608350000000     0.632750000000     0.033050000000    -0.193228   
N81      N      0.824380000000     0.823350000000     0.062130000000    -0.0308364  
N82      N      0.158560000000     0.144380000000     0.967430000000    -0.1996     
N83      N      0.359850000000     0.321480000000     0.913840000000    -0.193682   
N84      N      0.130260000000     0.140660000000     0.903810000000    -0.0336103  
N85      N      0.906890000000     0.037730000000     0.069370000000    -0.205369   
N86      N      0.682900000000     0.000910000000     0.032610000000    -0.186843   
N87      N      0.937020000000     0.106040000000     0.035170000000    -0.0352454  
N88      N      0.293970000000     0.938500000000     0.950980000000    -0.197546   
N89      N      0.074910000000     0.912150000000     0.914970000000    -0.195356   
N90      N      0.297420000000     0.924570000000     0.889120000000    -0.0312056  
N91      N      0.946100000000     0.798820000000     0.019790000000    -0.202207   
N92      N      0.928660000000     0.608350000000     0.014810000000    -0.19335    
N93      N      0.015740000000     0.814610000000     0.056930000000    -0.0321222  
N94      N      0.032850000000     0.162330000000     0.957840000000    -0.198976   
N95      N      0.033570000000     0.350630000000     0.955990000000    -0.194255   
N96      N      0.075600000000     0.179150000000     0.016750000000    -0.0314537  
O1       O      0.110150000000     0.079010000000     0.953890000000    -0.35954    
O2       O      0.105290000000     0.098490000000     0.007230000000    -0.354608   
O3       O      0.927780000000     0.978970000000     0.878550000000    -0.353234   
O4       O      0.922740000000     0.915430000000     0.890180000000    -0.37767    
O5       O      0.998980000000     0.096460000000     0.938460000000    -0.362753   
O6       O      0.031020000000     0.108510000000     0.994820000000    -0.350325   
O7       O      0.050350000000     0.959030000000     0.908130000000    -0.390082   
O8       O      0.005090000000     0.896470000000     0.932560000000    -0.348268   
O9       O      0.125090000000     0.035500000000     0.909980000000    -0.326821   
O10      O      0.129710000000     0.993710000000     0.982240000000    -0.532463   
O11      O      0.986930000000     0.063120000000     0.873580000000    -0.517408   
O12      O      0.894210000000     0.027150000000     0.922570000000    -0.335842   
O13      O      0.034750000000     0.045730000000     0.959190000000    -0.481005   
O14      O      0.997200000000     0.981100000000     0.924180000000    -0.626399   
O15      O      0.984580000000     0.866000000000     0.034460000000    -0.356858   
O16      O      0.942210000000     0.849590000000     0.981900000000    -0.368472   
O17      O      0.939580000000     0.997000000000     0.069640000000    -0.361506   
O18      O      0.979290000000     0.062450000000     0.051680000000    -0.331195   
O19      O      0.855750000000     0.883400000000     0.010300000000    -0.366156   
O20      O      0.872390000000     0.860690000000     0.963710000000    -0.36014    
O21      O      0.041850000000     0.978610000000     0.096830000000    -0.370603   
O22      O      0.053720000000     0.044340000000     0.084300000000    -0.367714   
O23      O      0.993120000000     0.894220000000     0.098420000000    -0.515675   
O24      O      0.087730000000     0.939990000000     0.052620000000    -0.349709   
O25      O      0.853470000000     0.920980000000     0.064260000000    -0.326364   
O26      O      0.853730000000     0.977450000000     0.998130000000    -0.531301   
O27      O      0.943450000000     0.914940000000     0.015050000000    -0.63708    
O28      O      0.980370000000     0.979080000000     0.049300000000    -0.469681   
O29      O      0.023260000000     0.938080000000     0.982460000000    -0.494788   
O30      O      0.954620000000     0.022370000000     0.991080000000    -0.62908    
O31      O      0.064510000000     0.006340000000     0.017650000000    -0.633291   
O32      O      0.914560000000     0.954350000000     0.956350000000    -0.489311   
O33      O      0.982240000000     0.886460000000     0.438500000000    -0.365298   
O34      O      0.056800000000     0.927620000000     0.443960000000    -0.359089   
O35      O      0.866810000000     0.975260000000     0.428070000000    -0.346513   
O36      O      0.852960000000     0.968630000000     0.486940000000    -0.356893   
O37      O      0.989630000000     0.000420000000     0.370990000000    -0.375403   
O38      O      0.053820000000     0.998320000000     0.389470000000    -0.352404   
O39      O      0.875110000000     0.865340000000     0.507910000000    -0.383482   
O40      O      0.856470000000     0.905750000000     0.534600000000    -0.355447   
O41      O      0.900090000000     0.832490000000     0.463440000000    -0.331923   
O42      O      0.969410000000     0.855550000000     0.529590000000    -0.529768   
O43      O      0.895730000000     0.942020000000     0.377830000000    -0.521766   
O44      O      0.943210000000     0.048800000000     0.387470000000    -0.325415   
O45      O      0.979600000000     0.947500000000     0.436570000000    -0.484042   
O46      O      0.913070000000     0.938890000000     0.470340000000    -0.631109   
O47      O      0.986370000000     0.965150000000     0.604510000000    -0.378848   
O48      O      0.921430000000     0.966450000000     0.586610000000    -0.367584   
O49      O      0.105690000000     0.102280000000     0.468570000000    -0.354795   
O50      O      0.119490000000     0.059880000000     0.439760000000    -0.353715   
O51      O      0.986480000000     0.090910000000     0.518880000000    -0.377888   
O52      O      0.917730000000     0.038110000000     0.532650000000    -0.338065   
O53      O      0.113010000000     0.002760000000     0.547060000000    -0.357997   
O54      O      0.125650000000     0.004210000000     0.488560000000    -0.359462   
O55      O      0.077670000000     0.022610000000     0.601560000000    -0.520206   
O56      O      0.038820000000     0.920310000000     0.586100000000    -0.355459   
O57      O      0.078250000000     0.122650000000     0.528370000000    -0.315439   
O58      O      0.025790000000     0.119120000000     0.443400000000    -0.533485   
O59      O      0.997480000000     0.020190000000     0.538910000000    -0.628098   
O60      O      0.064400000000     0.028060000000     0.505180000000    -0.492166   
O61      O      0.956640000000     0.933990000000     0.537720000000    -0.494611   
O62      O      0.020900000000     0.033600000000     0.438170000000    -0.630396   
O63      O      0.026430000000     0.941830000000     0.504950000000    -0.631381   
O64      O      0.952400000000     0.025780000000     0.471730000000    -0.488315   
O65      O      0.035650000000     0.394530000000     0.994540000000    -0.372935   
O66      O      0.003780000000     0.392620000000     0.937820000000    -0.372816   
O67      O      0.885300000000     0.432950000000     0.057990000000    -0.385252   
O68      O      0.919520000000     0.500880000000     0.063630000000    -0.354672   
O69      O      0.868870000000     0.371810000000     0.956120000000    -0.387348   
O70      O      0.919820000000     0.379430000000     0.917800000000    -0.363187   
O71      O      0.033670000000     0.454560000000     0.093500000000    -0.349866   
O72      O      0.013350000000     0.503120000000     0.098360000000    -0.37953    
O73      O      0.994230000000     0.372940000000     0.064290000000    -0.321602   
O74      O      0.101070000000     0.456220000000     0.046990000000    -0.529225   
O75      O      0.863330000000     0.354740000000     0.031130000000    -0.523146   
O76      O      0.829860000000     0.421420000000     0.985300000000    -0.350718   
O77      O      0.960840000000     0.411220000000     0.988580000000    -0.498692   
O78      O      0.964170000000     0.449190000000     0.042480000000    -0.631656   
O79      O      0.108070000000     0.593020000000     0.016040000000    -0.370291   
O80      O      0.058040000000     0.586920000000     0.054470000000    -0.367463   
O81      O      0.945240000000     0.516080000000     0.876330000000    -0.354516   
O82      O      0.961580000000     0.464910000000     0.871600000000    -0.377135   
O83      O      0.935580000000     0.569820000000     0.975560000000    -0.368648   
O84      O      0.964620000000     0.571110000000     0.033090000000    -0.369746   
O85      O      0.080540000000     0.537550000000     0.907070000000    -0.346163   
O86      O      0.052060000000     0.471040000000     0.899030000000    -0.366114   
O87      O      0.115140000000     0.616000000000     0.941890000000    -0.524675   
O88      O      0.146880000000     0.546840000000     0.977570000000    -0.34008    
O89      O      0.989150000000     0.599080000000     0.909690000000    -0.329571   
O90      O      0.879310000000     0.517960000000     0.918010000000    -0.529167   
O91      O      0.016410000000     0.558290000000     0.981420000000    -0.634945   
O92      O      0.012610000000     0.519290000000     0.926910000000    -0.485739   
O93      O      0.052280000000     0.512420000000     0.026710000000    -0.496828   
O94      O      0.923910000000     0.456900000000     0.942370000000    -0.636985   
O95      O      0.048900000000     0.474080000000     0.972340000000    -0.632329   
O96      O      0.928510000000     0.494720000000     0.996730000000    -0.493352   
O97      O      0.933870000000     0.353940000000     0.536780000000    -0.35812    
O98      O      0.966960000000     0.358610000000     0.485820000000    -0.358743   
O99      O      0.857190000000     0.485960000000     0.472820000000    -0.374766   
O100     O      0.904490000000     0.542700000000     0.502690000000    -0.367876   
O101     O      0.867000000000     0.383960000000     0.435850000000    -0.377526   
O102     O      0.922110000000     0.367840000000     0.432070000000    -0.36019    
O103     O      0.924790000000     0.453650000000     0.589800000000    -0.374864   
O104     O      0.949020000000     0.522370000000     0.576200000000    -0.368777   
O105     O      0.861410000000     0.374250000000     0.553400000000    -0.340126   
O106     O      0.966040000000     0.400250000000     0.600140000000    -0.529166   
O107     O      0.815020000000     0.416330000000     0.442520000000    -0.514244   
O108     O      0.886180000000     0.479180000000     0.388210000000    -0.356571   
O109     O      0.923000000000     0.412160000000     0.482300000000    -0.496313   
O110     O      0.912840000000     0.465600000000     0.512300000000    -0.631986   
O111     O      0.092360000000     0.572940000000     0.546790000000    -0.372477   
O112     O      0.039200000000     0.593140000000     0.540050000000    -0.36192    
O113     O      0.037930000000     0.508730000000     0.381110000000    -0.375289   
O114     O      0.015240000000     0.440280000000     0.394600000000    -0.376844   
O115     O      0.024700000000     0.607300000000     0.432520000000    -0.344704   
O116     O      0.991860000000     0.602720000000     0.483550000000    -0.360782   
O117     O      0.091590000000     0.460140000000     0.518070000000    -0.37974    
O118     O      0.056130000000     0.417900000000     0.472880000000    -0.366312   
O119     O      0.139380000000     0.549590000000     0.500630000000    -0.525825   
O120     O      0.090210000000     0.498950000000     0.581730000000    -0.3207     
O121     O      0.092380000000     0.590100000000     0.408120000000    -0.319405   
O122     O      0.982440000000     0.552850000000     0.370080000000    -0.523128   
O123     O      0.037120000000     0.549870000000     0.486060000000    -0.645817   
O124     O      0.047330000000     0.496860000000     0.457780000000    -0.492208   
O125     O      0.998340000000     0.492540000000     0.548300000000    -0.493398   
O126     O      0.960410000000     0.468020000000     0.421640000000    -0.627989   
O127     O      0.006690000000     0.438160000000     0.517820000000    -0.641799   
O128     O      0.951460000000     0.524560000000     0.452450000000    -0.493502   
O129     O      0.365040000000     0.957790000000     0.934090000000    -0.348109   
O130     O      0.354120000000     0.958140000000     0.992460000000    -0.364057   
O131     O      0.487750000000     0.869830000000     0.957780000000    -0.379177   
O132     O      0.556880000000     0.921290000000     0.942490000000    -0.360296   
O133     O      0.385160000000     0.859330000000     0.029460000000    -0.380002   
O134     O      0.362370000000     0.904160000000     0.042240000000    -0.35853    
O135     O      0.492550000000     0.999230000000     0.875210000000    -0.349946   
O136     O      0.555720000000     0.994570000000     0.892200000000    -0.365327   
O137     O      0.402800000000     0.929550000000     0.881190000000    -0.320527   
O138     O      0.429580000000     0.030790000000     0.889070000000    -0.524085   
O139     O      0.391070000000     0.841230000000     0.958230000000    -0.529878   
O140     O      0.462040000000     0.841210000000     0.032660000000    -0.335778   
O141     O      0.414430000000     0.932730000000     0.976110000000    -0.498233   
O142     O      0.479990000000     0.939250000000     0.941480000000    -0.633202   
O143     O      0.604720000000     0.095960000000     0.965110000000    -0.382445   
O144     O      0.620240000000     0.052510000000     0.939700000000    -0.340923   
O145     O      0.494400000000     0.966390000000     0.107450000000    -0.353201   
O146     O      0.429210000000     0.967220000000     0.090490000000    -0.370717   
O147     O      0.614000000000     0.987170000000     0.049450000000    -0.371254   
O148     O      0.625750000000     0.991740000000     0.990240000000    -0.365424   
O149     O      0.499600000000     0.076430000000     0.037810000000    -0.360572   
O150     O      0.425020000000     0.037010000000     0.032810000000    -0.365964   
O151     O      0.581440000000     0.131090000000     0.009060000000    -0.517569   
O152     O      0.509280000000     0.105880000000     0.945040000000    -0.367304   
O153     O      0.588910000000     0.031000000000     0.095380000000    -0.323468   
O154     O      0.543740000000     0.922890000000     0.095910000000    -0.519121   
O155     O      0.568200000000     0.024460000000     0.006080000000    -0.634829   
O156     O      0.502320000000     0.017580000000     0.040700000000    -0.479137   
O157     O      0.520990000000     0.025420000000     0.939840000000    -0.488558   
O158     O      0.461870000000     0.931680000000     0.042200000000    -0.634102   
O159     O      0.453570000000     0.020020000000     0.973140000000    -0.630284   
O160     O      0.528150000000     0.936640000000     0.008490000000    -0.494436   
O161     O      0.508190000000     0.097150000000     0.440710000000    -0.34769    
O162     O      0.538550000000     0.108520000000     0.497800000000    -0.367435   
O163     O      0.343910000000     0.893530000000     0.496690000000    -0.386662   
O164     O      0.364920000000     0.863430000000     0.459660000000    -0.334452   
O165     O      0.416490000000     0.999750000000     0.564680000000    -0.389563   
O166     O      0.470210000000     0.062320000000     0.545720000000    -0.333892   
O167     O      0.438690000000     0.981730000000     0.380570000000    -0.380101   
O168     O      0.425160000000     0.915350000000     0.392760000000    -0.363008   
O169     O      0.406430000000     0.034600000000     0.418750000000    -0.334038   
O170     O      0.503310000000     0.061880000000     0.377050000000    -0.515772   
O171     O      0.352970000000     0.982320000000     0.493300000000    -0.52422    
O172     O      0.352820000000     0.916030000000     0.564040000000    -0.330843   
O173     O      0.455400000000     0.023470000000     0.491870000000    -0.481234   
O174     O      0.416600000000     0.956550000000     0.456120000000    -0.632578   
O175     O      0.536910000000     0.959110000000     0.413420000000    -0.352182   
O176     O      0.497280000000     0.893200000000     0.429610000000    -0.354051   
O177     O      0.538140000000     0.974170000000     0.602330000000    -0.381104   
O178     O      0.547100000000     0.039120000000     0.590180000000    -0.378704   
O179     O      0.471740000000     0.859140000000     0.541470000000    -0.373898   
O180     O      0.431720000000     0.844980000000     0.487670000000    -0.354481   
O181     O      0.627250000000     0.062750000000     0.485290000000    -0.363692   
O182     O      0.604300000000     0.091050000000     0.522810000000    -0.362908   
O183     O      0.617110000000     0.967280000000     0.484700000000    -0.534716   
O184     O      0.625840000000     0.034450000000     0.422850000000    -0.327427   
O185     O      0.566510000000     0.920410000000     0.568770000000    -0.355144   
O186     O      0.463630000000     0.891220000000     0.603860000000    -0.52303    
O187     O      0.516510000000     0.930360000000     0.491530000000    -0.62823    
O188     O      0.555950000000     0.998130000000     0.526980000000    -0.499367   
O189     O      0.500040000000     0.977310000000     0.431400000000    -0.463702   
O190     O      0.471860000000     0.976080000000     0.552720000000    -0.63774    
O191     O      0.539560000000     0.042780000000     0.466340000000    -0.635019   
O192     O      0.433370000000     0.911190000000     0.517280000000    -0.496266   
O193     O      0.454430000000     0.357160000000     0.022220000000    -0.344224   
O194     O      0.487780000000     0.362340000000     0.971350000000    -0.346661   
O195     O      0.353470000000     0.468340000000     0.956920000000    -0.383839   
O196     O      0.398160000000     0.529730000000     0.981050000000    -0.354234   
O197     O      0.390700000000     0.390920000000     0.899570000000    -0.386012   
O198     O      0.435540000000     0.365260000000     0.922990000000    -0.352918   
O199     O      0.436650000000     0.452110000000     0.075120000000    -0.361666   
O200     O      0.446880000000     0.516780000000     0.057670000000    -0.372889   
O201     O      0.389420000000     0.368820000000     0.055170000000    -0.299254   
O202     O      0.502520000000     0.416590000000     0.082980000000    -0.531661   
O203     O      0.330770000000     0.380390000000     0.957070000000    -0.530913   
O204     O      0.359250000000     0.453210000000     0.884200000000    -0.337858   
O205     O      0.436010000000     0.407470000000     0.970630000000    -0.499087   
O206     O      0.419510000000     0.457350000000     0.999290000000    -0.634648   
O207     O      0.576410000000     0.562390000000     0.042040000000    -0.370385   
O208     O      0.532960000000     0.590500000000     0.021380000000    -0.350112   
O209     O      0.537960000000     0.508460000000     0.863520000000    -0.375248   
O210     O      0.524520000000     0.442320000000     0.878500000000    -0.37637    
O211     O      0.516380000000     0.602740000000     0.914050000000    -0.368326   
O212     O      0.486900000000     0.596710000000     0.966890000000    -0.344117   
O213     O      0.614220000000     0.499290000000     0.961600000000    -0.365815   
O214     O      0.574410000000     0.431500000000     0.956840000000    -0.351962   
O215     O      0.645730000000     0.579480000000     0.992120000000    -0.527524   
O216     O      0.612630000000     0.495140000000     0.047630000000    -0.356781   
O217     O      0.584070000000     0.591720000000     0.884380000000    -0.334414   
O218     O      0.471140000000     0.542880000000     0.853660000000    -0.53468    
O219     O      0.537250000000     0.552130000000     0.966830000000    -0.635077   
O220     O      0.551940000000     0.501540000000     0.938350000000    -0.477039   
O221     O      0.508260000000     0.496330000000     0.029430000000    -0.487771   
O222     O      0.464380000000     0.463360000000     0.907650000000    -0.626223   
O223     O      0.525540000000     0.445060000000     0.001430000000    -0.630395   
O224     O      0.446660000000     0.514110000000     0.935970000000    -0.500502   
O225     O      0.529430000000     0.387150000000     0.483740000000    -0.379756   
O226     O      0.511900000000     0.390660000000     0.423640000000    -0.369817   
O227     O      0.388760000000     0.482110000000     0.488080000000    -0.327133   
O228     O      0.412970000000     0.491980000000     0.544650000000    -0.356749   
O229     O      0.369650000000     0.385950000000     0.420080000000    -0.387745   
O230     O      0.425390000000     0.377320000000     0.403060000000    -0.358172   
O231     O      0.522880000000     0.447110000000     0.578640000000    -0.349883   
O232     O      0.504700000000     0.497360000000     0.582130000000    -0.377911   
O233     O      0.458080000000     0.361690000000     0.544300000000    -0.346655   
O234     O      0.572130000000     0.420020000000     0.544760000000    -0.513781   
O235     O      0.363440000000     0.372130000000     0.517090000000    -0.528986   
O236     O      0.318590000000     0.399540000000     0.464250000000    -0.335253   
O237     O      0.454910000000     0.407480000000     0.467930000000    -0.500659   
O238     O      0.451700000000     0.443720000000     0.522030000000    -0.630126   
O239     O      0.606720000000     0.588360000000     0.509460000000    -0.379955   
O240     O      0.550450000000     0.581630000000     0.541050000000    -0.347863   
O241     O      0.465740000000     0.520950000000     0.355890000000    -0.37308    
O242     O      0.475340000000     0.465000000000     0.353850000000    -0.379127   
O243     O      0.455590000000     0.581200000000     0.450970000000    -0.364228   
O244     O      0.466560000000     0.569940000000     0.511270000000    -0.368131   
O245     O      0.582760000000     0.531210000000     0.400670000000    -0.343265   
O246     O      0.562070000000     0.468450000000     0.387190000000    -0.358248   
O247     O      0.642150000000     0.605770000000     0.445210000000    -0.525569   
O248     O      0.644480000000     0.525520000000     0.482430000000    -0.363607   
O249     O      0.522360000000     0.604020000000     0.390050000000    -0.344544   
O250     O      0.404840000000     0.537250000000     0.390830000000    -0.522701   
O251     O      0.525120000000     0.556290000000     0.468320000000    -0.628591   
O252     O      0.527670000000     0.518570000000     0.414780000000    -0.461371   
O253     O      0.546290000000     0.501860000000     0.517670000000    -0.499071   
O254     O      0.434570000000     0.462900000000     0.416940000000    -0.62634    
O255     O      0.548380000000     0.465920000000     0.463510000000    -0.625872   
O256     O      0.435440000000     0.499650000000     0.470810000000    -0.453318   
O257     O      0.565140000000     0.397390000000     0.642590000000    -0.108667   
O258     O      0.603080000000     0.459590000000     0.612520000000    -0.104257   
O259     O      0.347390000000     0.411230000000     0.092070000000    -0.102953   
O260     O      0.364360000000     0.378470000000     0.140450000000    -0.0949902  
O261     O      0.349650000000     0.789160000000     0.517620000000    -0.0984706  
O262     O      0.325870000000     0.741710000000     0.477790000000    -0.0995133  
O263     O      0.574850000000     0.146960000000     0.395040000000    -0.115401   
O264     O      0.529400000000     0.168340000000     0.363500000000    -0.111597   
O265     O      0.463690000000     0.045500000000     0.798110000000    -0.105669   
O266     O      0.515710000000     0.075330000000     0.842350000000    -0.0996227  
O267     O      0.508360000000     0.907320000000     0.175900000000    -0.113625   
O268     O      0.548380000000     0.976640000000     0.169340000000    -0.094009   
O269     O      0.436750000000     0.628350000000     0.986400000000    -0.0953027  
O270     O      0.498230000000     0.664480000000     0.021510000000    -0.101188   
O271     O      0.391710000000     0.270820000000     0.081780000000    -0.0967751  
O272     O      0.371850000000     0.290020000000     0.026800000000    -0.10359    
O273     O      0.735270000000     0.082810000000     0.467170000000    -0.096628   
O274     O      0.701700000000     0.062170000000     0.519570000000    -0.0992569  
O275     O      0.308150000000     0.832320000000     0.403980000000    -0.0957278  
O276     O      0.291600000000     0.766020000000     0.414210000000    -0.0878103  
O277     O      0.745730000000     0.424100000000     0.516250000000    -0.117532   
O278     O      0.812020000000     0.462750000000     0.544930000000    -0.115018   
O279     O      0.128280000000     0.429500000000     0.603410000000    -0.107834   
O280     O      0.063360000000     0.391330000000     0.572790000000    -0.129948   
O281     O      0.909160000000     0.570780000000     0.812980000000    -0.109511   
O282     O      0.979870000000     0.585760000000     0.830800000000    -0.0922996  
O283     O      0.045470000000     0.385850000000     0.159500000000    -0.0999554  
O284     O      0.098740000000     0.444170000000     0.132450000000    -0.0942995  
O285     O      0.700030000000     0.089170000000     0.866650000000    -0.103535   
O286     O      0.633210000000     0.085590000000     0.869820000000    -0.0899208  
O287     O      0.161560000000     0.575330000000     0.069000000000    -0.108408   
O288     O      0.220980000000     0.620500000000     0.037510000000    -0.105114   
O289     O      0.585010000000     0.360960000000     0.020600000000    -0.118439   
O290     O      0.593250000000     0.368860000000     0.961140000000    -0.100428   
O291     O      0.138940000000     0.594070000000     0.860380000000    -0.0919088  
O292     O      0.192950000000     0.624220000000     0.903160000000    -0.108083   
O293     O      0.554610000000     0.683720000000     0.530850000000    -0.115246   
O294     O      0.539900000000     0.634050000000     0.575990000000    -0.0976018  
O295     O      0.181870000000     0.191660000000     0.511210000000    -0.10251    
O296     O      0.173250000000     0.127560000000     0.521420000000    -0.100414   
O297     O      0.842350000000     0.024190000000     0.383210000000    -0.084169   
O298     O      0.801880000000     0.970750000000     0.349350000000    -0.110692   
O299     O      0.454900000000     0.148750000000     0.518560000000    -0.105114   
O300     O      0.432650000000     0.094240000000     0.486600000000    -0.0932692  
O301     O      0.108830000000     0.673090000000     0.435010000000    -0.106142   
O302     O      0.099450000000     0.701400000000     0.380630000000    -0.0993423  
O303     O      0.826140000000     0.061230000000     0.506480000000    -0.090301   
O304     O      0.844950000000     0.032980000000     0.557140000000    -0.0914473  
O305     O      0.848770000000     0.970650000000     0.847470000000    -0.0927939  
O306     O      0.886120000000     0.022100000000     0.805780000000    -0.108493   
O307     O      0.135770000000     0.027740000000     0.361680000000    -0.100381   
O308     O      0.105130000000     0.963780000000     0.343400000000    -0.102746   
O309     O      0.865580000000     0.830030000000     0.065790000000    -0.129991   
O310     O      0.806490000000     0.826600000000     0.089580000000    -0.107896   
O311     O      0.140130000000     0.137980000000     0.872080000000    -0.115263   
O312     O      0.089620000000     0.132680000000     0.908580000000    -0.102725   
O313     O      0.970440000000     0.129370000000     0.056330000000    -0.0753319  
O314     O      0.932760000000     0.120740000000     0.002510000000    -0.118708   
O315     O      0.298930000000     0.943950000000     0.857500000000    -0.104327   
O316     O      0.307350000000     0.894710000000     0.892930000000    -0.0999367  
O317     O      0.046590000000     0.839970000000     0.035100000000    -0.11596    
O318     O      0.027360000000     0.809350000000     0.090550000000    -0.11179    
O319     O      0.066090000000     0.183670000000     0.047950000000    -0.085193   
O320     O      0.111380000000     0.175990000000     0.014550000000    -0.0906909  
Zr1      Zr     0.068990000000     0.004860000000     0.955050000000     1.38429    
Zr2      Zr     0.962710000000     0.021720000000     0.929660000000     1.39241    
Zr3      Zr     0.015870000000     0.939320000000     0.043950000000     1.3916     
Zr4      Zr     0.908540000000     0.955410000000     0.018610000000     1.38313    
Zr5      Zr     0.027850000000     0.046190000000     0.021550000000     1.38454    
Zr6      Zr     0.950370000000     0.913630000000     0.952700000000     1.37061    
Zr7      Zr     0.950220000000     0.899260000000     0.486910000000     1.37291    
Zr8      Zr     0.944250000000     0.989160000000     0.421650000000     1.38256    
Zr9      Zr     0.033100000000     0.978890000000     0.554360000000     1.37509    
Zr10     Zr     0.029190000000     0.068800000000     0.488940000000     1.39207    
Zr11     Zr     0.056230000000     0.991610000000     0.454630000000     1.37332    
Zr12     Zr     0.920440000000     0.975260000000     0.521120000000     1.36562    
Zr13     Zr     0.024620000000     0.439970000000     0.029700000000     1.38599    
Zr14     Zr     0.901540000000     0.422670000000     0.000130000000     1.38485    
Zr15     Zr     0.075030000000     0.546170000000     0.968960000000     1.39555    
Zr16     Zr     0.953150000000     0.529640000000     0.939850000000     1.39265    
Zr17     Zr     0.984310000000     0.446380000000     0.930960000000     1.38491    
Zr18     Zr     0.991530000000     0.522220000000     0.038730000000     1.38128    
Zr19     Zr     0.940240000000     0.422440000000     0.543750000000     1.38963    
Zr20     Zr     0.895790000000     0.454640000000     0.450100000000     1.38705    
Zr21     Zr     0.063840000000     0.507870000000     0.520070000000     1.39967    
Zr22     Zr     0.017250000000     0.538320000000     0.425250000000     1.38426    
Zr23     Zr     0.989530000000     0.426460000000     0.455680000000     1.3681     
Zr24     Zr     0.971810000000     0.535770000000     0.514570000000     1.37908    
Zr25     Zr     0.444100000000     0.979960000000     0.925320000000     1.39638    
Zr26     Zr     0.450890000000     0.893000000000     0.993300000000     1.39053    
Zr27     Zr     0.530630000000     0.063620000000     0.988810000000     1.37338    
Zr28     Zr     0.538570000000     0.976920000000     0.056540000000     1.3891     
Zr29     Zr     0.424920000000     0.972170000000     0.025040000000     1.36422    
Zr30     Zr     0.557400000000     0.984530000000     0.957140000000     1.3716     
Zr31     Zr     0.470650000000     0.022850000000     0.432190000000     1.39542    
Zr32     Zr     0.404210000000     0.957100000000     0.516900000000     1.39619    
Zr33     Zr     0.568410000000     0.996860000000     0.466400000000     1.37938    
Zr34     Zr     0.502680000000     0.931950000000     0.551350000000     1.38607    
Zr35     Zr     0.524070000000     0.042700000000     0.526920000000     1.37832    
Zr36     Zr     0.446490000000     0.910390000000     0.456380000000     1.37775    
Zr37     Zr     0.458770000000     0.423970000000     0.030570000000     1.39325    
Zr38     Zr     0.398600000000     0.441460000000     0.938590000000     1.39181    
Zr39     Zr     0.574310000000     0.517600000000     0.998930000000     1.37316    
Zr40     Zr     0.513770000000     0.535900000000     0.907020000000     1.37617    
Zr41     Zr     0.502220000000     0.428480000000     0.940290000000     1.37686    
Zr42     Zr     0.469840000000     0.530160000000     0.996620000000     1.38817    
Zr43     Zr     0.510530000000     0.428870000000     0.516250000000     1.38297    
Zr44     Zr     0.399680000000     0.427380000000     0.471140000000     1.34808    
Zr45     Zr     0.581890000000     0.538690000000     0.464060000000     1.35711    
Zr46     Zr     0.471380000000     0.536510000000     0.418490000000     1.38069    
Zr47     Zr     0.491730000000     0.444570000000     0.414590000000     1.37348    
Zr48     Zr     0.487450000000     0.517440000000     0.521460000000     1.38261    


