data_structure

_audit_creation_method RASPA-1.0
_audit_creation_date 2023-6-4
_audit_author_name 'Poobodin Mano'

_cell_length_a    34.8633
_cell_length_b    37.4492
_cell_length_c    38.4412
_cell_angle_alpha 82.7609
_cell_angle_beta  96.3224
_cell_angle_gamma 119.438
_cell_volume      43293

_symmetry_cell_setting          triclinic
_symmetry_space_group_name_Hall 'P 1'
_symmetry_space_group_name_H-M  'P 1'
_symmetry_Int_Tables_number     1

_symmetry_equiv_pos_as_xyz 'x,y,z'

loop_
_atom_site_label
_atom_site_type_symbol
_atom_site_fract_x
_atom_site_fract_y
_atom_site_fract_z
_atom_site_charge
C1       C      0.119430000000     0.093550000000     0.007470000000     0.401638   
C2       C      0.937410000000     0.966400000000     0.849670000000     0.388114   
C3       C      0.022210000000     0.125560000000     0.960990000000     0.408773   
C4       C      0.047780000000     0.935950000000     0.904830000000     0.391398   
C5       C      0.941900000000     0.840440000000     0.985310000000     0.401035   
C6       C      0.914100000000     0.021090000000     0.045940000000     0.372266   
C7       C      0.839140000000     0.868010000000     0.942130000000     0.397173   
C8       C      0.014610000000     0.996140000000     0.098680000000     0.391483   
C9       C      0.006030000000     0.887260000000     0.429500000000     0.396988   
C10      C      0.836800000000     0.984360000000     0.437970000000     0.395424   
C11      C      0.012600000000     0.002140000000     0.353660000000     0.39382    
C12      C      0.837190000000     0.872820000000     0.518730000000     0.388478   
C13      C      0.931850000000     0.960900000000     0.594610000000     0.395169   
C14      C      0.116110000000     0.093280000000     0.436520000000     0.383904   
C15      C      0.942360000000     0.080810000000     0.519110000000     0.38971    
C16      C      0.115750000000     0.996190000000     0.511450000000     0.399824   
C17      C      0.012020000000     0.370390000000     0.982660000000     0.401066   
C18      C      0.855160000000     0.467770000000     0.036590000000     0.39237    
C19      C      0.883240000000     0.345400000000     0.940100000000     0.389711   
C20      C      0.979140000000     0.467790000000     0.110930000000     0.39851    
C21      C      0.074020000000     0.602030000000     0.039980000000     0.391593   
C22      C      0.979580000000     0.493290000000     0.859580000000     0.408253   
C23      C      0.934940000000     0.581970000000     0.987630000000     0.405739   
C24      C      0.087990000000     0.490480000000     0.924360000000     0.375262   
C25      C      0.959150000000     0.346670000000     0.514210000000     0.389459   
C26      C      0.881710000000     0.519070000000     0.526830000000     0.395123   
C27      C      0.862490000000     0.350100000000     0.471820000000     0.403165   
C28      C      0.000050000000     0.513100000000     0.606220000000     0.40876    
C29      C      0.098590000000     0.600510000000     0.526070000000     0.38431    
C30      C      0.957650000000     0.457680000000     0.364710000000     0.401492   
C31      C      0.993390000000     0.621420000000     0.457630000000     0.377556   
C32      C      0.065470000000     0.452410000000     0.433320000000     0.376369   
C33      C      0.326580000000     0.952380000000     0.929130000000     0.396212   
C34      C      0.511480000000     0.881640000000     0.922050000000     0.39322    
C35      C      0.336180000000     0.864380000000     0.005480000000     0.386972   
C36      C      0.509510000000     0.990710000000     0.841590000000     0.389024   
C37      C      0.613920000000     0.089430000000     0.923370000000     0.382825   
C38      C      0.441990000000     0.967660000000     0.083900000000     0.392483   
C39      C      0.618820000000     0.989610000000     0.997330000000     0.392074   
C40      C      0.444570000000     0.068420000000     0.009670000000     0.3814     
C41      C      0.435880000000     0.086120000000     0.462880000000     0.406947   
C42      C      0.345010000000     0.849150000000     0.433040000000     0.398836   
C43      C      0.382890000000     0.994790000000     0.541280000000     0.396835   
C44      C      0.422800000000     0.958410000000     0.339180000000     0.394035   
C45      C      0.549220000000     0.963080000000     0.382380000000     0.388861   
C46      C      0.517470000000     0.997080000000     0.585080000000     0.3887     
C47      C      0.493490000000     0.863310000000     0.463400000000     0.403484   
C48      C      0.590630000000     0.091080000000     0.500020000000     0.384162   
C49      C      0.471810000000     0.343700000000     0.990680000000     0.392078   
C50      C      0.370870000000     0.503500000000     0.003290000000     0.396657   
C51      C      0.366170000000     0.353150000000     0.930060000000     0.394787   
C52      C      0.494020000000     0.498490000000     0.089900000000     0.40807    
C53      C      0.592900000000     0.601080000000     0.012110000000     0.389003   
C54      C      0.472650000000     0.461930000000     0.846110000000     0.403755   
C55      C      0.493710000000     0.615120000000     0.947160000000     0.384807   
C56      C      0.583820000000     0.458580000000     0.923480000000     0.375802   
C57      C      0.450030000000     0.339970000000     0.472940000000     0.408904   
C58      C      0.371790000000     0.508860000000     0.481110000000     0.358054   
C59      C      0.376060000000     0.360920000000     0.403120000000     0.388263   
C60      C      0.458530000000     0.471030000000     0.589270000000     0.40103    
C61      C      0.579710000000     0.598440000000     0.527440000000     0.380762   
C62      C      0.507760000000     0.487460000000     0.345070000000     0.405134   
C63      C      0.482280000000     0.607680000000     0.453650000000     0.413354   
C64      C      0.593370000000     0.475570000000     0.424940000000     0.367541   
C65      C      0.480440000000     0.435640000000     0.794070000000     0.149752   
C66      C      0.450010000000     0.480840000000     0.790420000000     0.0757464  
C67      C      0.476440000000     0.436250000000     0.757180000000    -0.124785   
C68      C      0.445620000000     0.427900000000     0.680590000000    -0.0841209  
C69      C      0.445480000000     0.481500000000     0.754190000000    -0.0994913  
C70      C      0.457030000000     0.462470000000     0.698180000000     0.0257668  
C71      C      0.459470000000     0.459790000000     0.737030000000     0.0505618  
C72      C      0.445210000000     0.431240000000     0.644170000000     0.0641162  
C73      C      0.464920000000     0.501780000000     0.641770000000     0.0660122  
C74      C      0.466250000000     0.499660000000     0.678340000000    -0.08398    
C75      C      0.502270000000     0.412140000000     0.813830000000    -0.220783   
C76      C      0.489610000000     0.526010000000     0.142600000000     0.147844   
C77      C      0.523140000000     0.483530000000     0.144250000000     0.0758615  
C78      C      0.495840000000     0.525990000000     0.179390000000    -0.124379   
C79      C      0.529960000000     0.534330000000     0.255400000000    -0.0852444  
C80      C      0.529550000000     0.483240000000     0.180390000000    -0.0998643  
C81      C      0.517720000000     0.500100000000     0.237160000000     0.02631    
C82      C      0.514880000000     0.503650000000     0.198430000000     0.0506026  
C83      C      0.528460000000     0.529740000000     0.291680000000     0.0659505  
C84      C      0.505750000000     0.458610000000     0.292610000000     0.0664895  
C85      C      0.506680000000     0.462090000000     0.256140000000    -0.0839541  
C86      C      0.465750000000     0.548330000000     0.124230000000    -0.217683   
C87      C      0.468110000000     0.657070000000     0.475110000000     0.151788   
C88      C      0.516920000000     0.676020000000     0.428950000000     0.0726286  
C89      C      0.482670000000     0.698360000000     0.478450000000    -0.131545   
C90      C      0.532050000000     0.788750000000     0.488080000000    -0.0861444  
C91      C      0.530810000000     0.717310000000     0.431090000000    -0.100613   
C92      C      0.522590000000     0.770500000000     0.456500000000     0.026075   
C93      C      0.514400000000     0.728520000000     0.456680000000     0.0517713  
C94      C      0.524000000000     0.821280000000     0.489740000000     0.0651734  
C95      C      0.501260000000     0.819390000000     0.429060000000     0.0679554  
C96      C      0.509650000000     0.787500000000     0.426350000000    -0.0861234  
C97      C      0.428880000000     0.625760000000     0.495680000000    -0.219789   
C98      C      0.400460000000     0.268640000000     0.493040000000     0.148961   
C99      C      0.447040000000     0.285840000000     0.445670000000     0.0736062  
C100     C      0.386750000000     0.226890000000     0.491020000000    -0.128411   
C101     C      0.386140000000     0.152290000000     0.438710000000    -0.0868247  
C102     C      0.432390000000     0.244820000000     0.442360000000    -0.101353   
C103     C      0.398660000000     0.174170000000     0.468480000000     0.0255941  
C104     C      0.403280000000     0.215210000000     0.465910000000     0.050557   
C105     C      0.396990000000     0.121340000000     0.437820000000     0.0647623  
C106     C      0.429720000000     0.132310000000     0.495780000000     0.0678569  
C107     C      0.418360000000     0.162540000000     0.497890000000    -0.0870012  
C108     C      0.377770000000     0.278370000000     0.518880000000    -0.218583   
C109     C      0.541310000000     0.976940000000     0.643210000000     0.142448   
C110     C      0.519860000000     0.028750000000     0.635680000000     0.0682202  
C111     C      0.543040000000     0.977720000000     0.680110000000    -0.122222   
C112     C      0.558370000000     0.996950000000     0.758720000000    -0.0820067  
C113     C      0.521950000000     0.030240000000     0.671980000000    -0.0944602  
C114     C      0.527940000000     0.001010000000     0.733590000000     0.0260355  
C115     C      0.532030000000     0.003550000000     0.694850000000     0.0477433  
C116     C      0.552450000000     0.994150000000     0.794880000000     0.0631295  
C117     C      0.486940000000     0.998610000000     0.781620000000     0.0634     
C118     C      0.492050000000     0.001830000000     0.745730000000    -0.0820886  
C119     C      0.556960000000     0.950150000000     0.629970000000    -0.217084   
C120     C      0.402490000000     0.980010000000     0.280450000000     0.142876   
C121     C      0.424800000000     0.928750000000     0.288840000000     0.0692795  
C122     C      0.403180000000     0.980380000000     0.243690000000    -0.122981   
C123     C      0.459180000000     0.959960000000     0.179930000000    -0.0838639  
C124     C      0.425340000000     0.928530000000     0.252640000000    -0.095096   
C125     C      0.421720000000     0.958730000000     0.191150000000     0.0254466  
C126     C      0.415870000000     0.955420000000     0.229540000000     0.0474233  
C127     C      0.465290000000     0.963240000000     0.144200000000     0.0649696  
C128     C      0.397900000000     0.964000000000     0.129600000000     0.0641577  
C129     C      0.390980000000     0.961150000000     0.165460000000    -0.0818679  
C130     C      0.384960000000     0.005650000000     0.293090000000    -0.214841   
C131     C      0.508080000000     0.680670000000     0.967220000000     0.141932   
C132     C      0.507630000000     0.673030000000     0.906560000000     0.0636692  
C133     C      0.519460000000     0.722360000000     0.958650000000    -0.122955   
C134     C      0.562540000000     0.816390000000     0.925470000000    -0.0821086  
C135     C      0.517230000000     0.713850000000     0.897710000000    -0.0952086  
C136     C      0.525930000000     0.779760000000     0.915080000000     0.0260664  
C137     C      0.523550000000     0.739020000000     0.923880000000     0.0463268  
C138     C      0.559350000000     0.852680000000     0.923420000000     0.0654334  
C139     C      0.485440000000     0.816940000000     0.900420000000     0.0679573  
C140     C      0.488070000000     0.780990000000     0.900680000000    -0.0841937  
C141     C      0.500110000000     0.665290000000     0.005650000000    -0.217557   
C142     C      0.473260000000     0.287830000000     0.030350000000     0.142524   
C143     C      0.451670000000     0.279390000000     0.969720000000     0.0677831  
C144     C      0.464720000000     0.246630000000     0.035390000000    -0.122993   
C145     C      0.406580000000     0.145080000000     0.001100000000    -0.0822679  
C146     C      0.442540000000     0.238390000000     0.974420000000    -0.0966585  
C147     C      0.445130000000     0.179860000000     0.011940000000     0.0246673  
C148     C      0.449260000000     0.221630000000     0.007460000000     0.0466971  
C149     C      0.405570000000     0.106880000000     0.002920000000     0.0624011  
C150     C      0.479680000000     0.137070000000     0.025940000000     0.0636535  
C151     C      0.481370000000     0.175110000000     0.025450000000    -0.0846609  
C152     C      0.493720000000     0.313220000000     0.061670000000    -0.214795   
C153     C      0.814420000000     0.293280000000     0.509580000000     0.153611   
C154     C      0.814940000000     0.285710000000     0.449040000000     0.0701881  
C155     C      0.774560000000     0.256740000000     0.512430000000    -0.129489   
C156     C      0.705790000000     0.159800000000     0.480300000000    -0.085583   
C157     C      0.775650000000     0.248230000000     0.451580000000    -0.0980963  
C158     C      0.710860000000     0.197730000000     0.486430000000     0.0267455  
C159     C      0.754130000000     0.234900000000     0.483110000000     0.0501815  
C160     C      0.665720000000     0.124440000000     0.486270000000     0.0694099  
C161     C      0.635230000000     0.163550000000     0.503380000000     0.066734   
C162     C      0.675370000000     0.199570000000     0.498410000000    -0.0839247  
C163     C      0.837740000000     0.312650000000     0.543340000000    -0.21853    
C164     C      0.143830000000     0.674620000000     0.518130000000     0.148792   
C165     C      0.170910000000     0.630460000000     0.506600000000     0.0678886  
C166     C      0.178810000000     0.707740000000     0.500400000000    -0.12555    
C167     C      0.234310000000     0.766770000000     0.444280000000    -0.084461   
C168     C      0.205550000000     0.662750000000     0.488440000000    -0.0977948  
C169     C      0.243000000000     0.736200000000     0.461920000000     0.0267291  
C170     C      0.208620000000     0.701610000000     0.483570000000     0.0474462  
C171     C      0.268700000000     0.803370000000     0.430770000000     0.0699797  
C172     C      0.318840000000     0.777530000000     0.444950000000     0.0674231  
C173     C      0.285320000000     0.740760000000     0.460140000000    -0.0815574  
C174     C      0.114910000000     0.684250000000     0.537440000000    -0.222567   
C175     C      0.842690000000     0.550100000000     0.489490000000     0.147694   
C176     C      0.804510000000     0.488810000000     0.526380000000     0.0709836  
C177     C      0.802260000000     0.542470000000     0.471300000000    -0.12327    
C178     C      0.711590000000     0.529930000000     0.446030000000    -0.0851422  
C179     C      0.764180000000     0.481380000000     0.509430000000    -0.0973502  
C180     C      0.719610000000     0.497960000000     0.460820000000     0.0249619  
C181     C      0.762630000000     0.507170000000     0.480410000000     0.0487653  
C182     C      0.669960000000     0.521190000000     0.431180000000     0.0650952  
C183     C      0.643650000000     0.449630000000     0.442990000000     0.063432   
C184     C      0.685420000000     0.457240000000     0.457710000000    -0.0809849  
C185     C      0.883540000000     0.588680000000     0.477490000000    -0.220678   
C186     C      0.116280000000     0.427390000000     0.459250000000     0.139536   
C187     C      0.141800000000     0.493780000000     0.428780000000     0.0718513  
C188     C      0.160500000000     0.437770000000     0.469940000000    -0.120713   
C189     C      0.260630000000     0.485240000000     0.501550000000    -0.082468   
C190     C      0.185340000000     0.504250000000     0.438620000000    -0.0931314  
C191     C      0.242100000000     0.487000000000     0.467400000000     0.0248018  
C192     C      0.195220000000     0.476570000000     0.459920000000     0.0502353  
C193     C      0.305500000000     0.495560000000     0.506530000000     0.0555551  
C194     C      0.312860000000     0.509070000000     0.445000000000     0.06501    
C195     C      0.269170000000     0.499920000000     0.439230000000    -0.0843131  
C196     C      0.080740000000     0.384520000000     0.470550000000    -0.216837   
C197     C      0.018490000000     0.494410000000     0.811040000000     0.157205   
C198     C      0.967300000000     0.520000000000     0.803050000000     0.0750174  
C199     C      0.024630000000     0.501910000000     0.775020000000    -0.130284   
C200     C      0.004300000000     0.486370000000     0.700370000000    -0.0856756  
C201     C      0.972440000000     0.527020000000     0.766940000000    -0.103232   
C202     C      0.002250000000     0.518130000000     0.714080000000     0.0246451  
C203     C      0.000440000000     0.516800000000     0.752510000000     0.0560071  
C204     C      0.005240000000     0.486350000000     0.664560000000     0.0688534  
C205     C      0.001440000000     0.548380000000     0.654610000000     0.0685964  
C206     C      0.001030000000     0.549630000000     0.690840000000    -0.0803836  
C207     C      0.048830000000     0.481720000000     0.833710000000    -0.22513    
C208     C      0.962730000000     0.425350000000     0.166240000000     0.142396   
C209     C      0.986550000000     0.497150000000     0.163540000000     0.0718991  
C210     C      0.958950000000     0.422420000000     0.202660000000    -0.122832   
C211     C      0.970340000000     0.426870000000     0.281850000000    -0.0836212  
C212     C      0.983560000000     0.494870000000     0.199540000000    -0.0964449  
C213     C      0.962190000000     0.454000000000     0.257550000000     0.0271569  
C214     C      0.968740000000     0.457100000000     0.219520000000     0.0480493  
C215     C      0.966210000000     0.426630000000     0.317670000000     0.067148   
C216     C      0.945390000000     0.478630000000     0.305720000000     0.0689685  
C217     C      0.948010000000     0.478890000000     0.269920000000    -0.0850476  
C218     C      0.947100000000     0.385420000000     0.149730000000    -0.212502   
C219     C      0.840100000000     0.273690000000     0.958410000000     0.148113   
C220     C      0.841720000000     0.297040000000     0.897870000000     0.0664894  
C221     C      0.803610000000     0.235450000000     0.951140000000    -0.12512    
C222     C      0.702630000000     0.196740000000     0.913740000000    -0.0833343  
C223     C      0.804630000000     0.259230000000     0.890080000000    -0.0952136  
C224     C      0.739770000000     0.192230000000     0.911960000000     0.0236424  
C225     C      0.784360000000     0.228490000000     0.917150000000     0.046591   
C226     C      0.660820000000     0.162110000000     0.916110000000     0.0619962  
C227     C      0.690710000000     0.118140000000     0.912230000000     0.0613688  
C228     C      0.733520000000     0.152390000000     0.910740000000    -0.0815541  
C229     C      0.860130000000     0.278440000000     0.995670000000    -0.217774   
C230     C      0.097710000000     0.674160000000     0.043560000000     0.142637   
C231     C      0.145310000000     0.646070000000     0.061950000000     0.0725987  
C232     C      0.134970000000     0.714300000000     0.041150000000    -0.119793   
C233     C      0.250190000000     0.756460000000     0.019230000000    -0.0835763  
C234     C      0.182140000000     0.685110000000     0.060690000000    -0.0958245  
C235     C      0.218370000000     0.758880000000     0.036580000000     0.0247878  
C236     C      0.177910000000     0.719660000000     0.047590000000     0.0460784  
C237     C      0.288650000000     0.791830000000     0.009170000000     0.0633609  
C238     C      0.265780000000     0.833640000000     0.032090000000     0.0618522  
C239     C      0.226240000000     0.798300000000     0.042500000000    -0.0808654  
C240     C      0.052600000000     0.669770000000     0.033660000000    -0.220455   
C241     C      0.775700000000     0.435370000000     0.035570000000     0.147303   
C242     C      0.818070000000     0.504210000000     0.012050000000     0.0706109  
C243     C      0.737370000000     0.433920000000     0.017900000000    -0.122107   
C244     C      0.662710000000     0.426050000000     0.965730000000    -0.0809301  
C245     C      0.780890000000     0.503140000000     0.993370000000    -0.0946522  
C246     C      0.699780000000     0.464260000000     0.972750000000     0.026371   
C247     C      0.739750000000     0.467080000000     0.994740000000     0.0476413  
C248     C      0.624710000000     0.424300000000     0.947500000000     0.0618215  
C249     C      0.660380000000     0.496830000000     0.938900000000     0.0667763  
C250     C      0.698080000000     0.499820000000     0.958050000000    -0.0789431  
C251     C      0.770180000000     0.399320000000     0.061270000000    -0.218035   
C252     C      0.336260000000     0.543360000000     0.975260000000     0.146907   
C253     C      0.295420000000     0.479650000000     0.008630000000     0.0740571  
C254     C      0.296270000000     0.542220000000     0.961930000000    -0.122226   
C255     C      0.206600000000     0.538970000000     0.947080000000    -0.0815307  
C256     C      0.255740000000     0.478140000000     0.995950000000    -0.0958449  
C257     C      0.212960000000     0.504610000000     0.954520000000     0.0264347  
C258     C      0.255560000000     0.508590000000     0.971060000000     0.0497659  
C259     C      0.165240000000     0.533940000000     0.934400000000     0.066955   
C260     C      0.136720000000     0.462090000000     0.934060000000     0.0625468  
C261     C      0.177740000000     0.466020000000     0.946580000000    -0.0820553  
C262     C      0.378380000000     0.578860000000     0.961450000000    -0.219493   
C263     C      0.603970000000     0.669090000000     0.542710000000     0.142184   
C264     C      0.655260000000     0.646460000000     0.536320000000     0.0656093  
C265     C      0.639770000000     0.709890000000     0.545580000000    -0.118272   
C266     C      0.719970000000     0.797870000000     0.530290000000    -0.0795662  
C267     C      0.690430000000     0.686060000000     0.538540000000    -0.0942536  
C268     C      0.722830000000     0.762160000000     0.543160000000     0.0256726  
C269     C      0.683700000000     0.719060000000     0.542870000000     0.0449637  
C270     C      0.758750000000     0.836290000000     0.525370000000     0.0636248  
C271     C      0.802670000000     0.805350000000     0.546540000000     0.0672196  
C272     C      0.765180000000     0.767610000000     0.553580000000    -0.0832028  
C273     C      0.558010000000     0.662710000000     0.544920000000    -0.221443   
C274     C      0.181600000000     0.127720000000     0.400930000000     0.137535   
C275     C      0.172760000000     0.160820000000     0.445860000000     0.0644562  
C276     C      0.221350000000     0.164370000000     0.392280000000    -0.12016    
C277     C      0.316970000000     0.248540000000     0.399560000000    -0.0806723  
C278     C      0.211220000000     0.196960000000     0.437480000000    -0.0948573  
C279     C      0.273140000000     0.240770000000     0.398900000000     0.0239382  
C280     C      0.235640000000     0.199660000000     0.409990000000     0.0448327  
C281     C      0.351840000000     0.289570000000     0.396820000000     0.0624707  
C282     C      0.300590000000     0.314350000000     0.389780000000     0.0627466  
C283     C      0.265390000000     0.274300000000     0.391920000000    -0.082755   
C284     C      0.166220000000     0.092550000000     0.378070000000    -0.216846   
C285     C      0.623820000000     0.995880000000     0.363950000000     0.144656   
C286     C      0.590210000000     0.927670000000     0.391280000000     0.0646479  
C287     C      0.665480000000     0.998450000000     0.370710000000    -0.128563   
C288     C      0.746960000000     0.985330000000     0.379150000000    -0.0837472  
C289     C      0.631190000000     0.929610000000     0.398550000000    -0.0990437  
C290     C      0.713270000000     0.970940000000     0.402280000000     0.0242537  
C291     C      0.669420000000     0.966020000000     0.389840000000     0.0469369  
C292     C      0.788180000000     0.990050000000     0.391620000000     0.0627493  
C293     C      0.763930000000     0.968290000000     0.449600000000     0.0649176  
C294     C      0.722060000000     0.962490000000     0.437860000000    -0.0840521  
C295     C      0.621370000000     0.031150000000     0.341840000000    -0.215706   
C296     C      0.194020000000     0.024960000000     0.502630000000     0.149959   
C297     C      0.164010000000     0.991040000000     0.557580000000     0.070257   
C298     C      0.235410000000     0.029980000000     0.516040000000    -0.126051   
C299     C      0.278150000000     0.973480000000     0.569590000000    -0.0858503  
C300     C      0.204680000000     0.995490000000     0.571160000000    -0.0998612  
C301     C      0.281360000000     0.012190000000     0.561090000000     0.0266283  
C302     C      0.240670000000     0.014520000000     0.550150000000     0.0505976  
C303     C      0.314930000000     0.968790000000     0.567410000000     0.0674741  
C304     C      0.359730000000     0.040730000000     0.555870000000     0.066988   
C305     C      0.323130000000     0.046540000000     0.556510000000    -0.0839532  
C306     C      0.192230000000     0.045270000000     0.466390000000    -0.222567   
C307     C      0.981140000000     0.823540000000     0.404300000000     0.147752   
C308     C      0.051190000000     0.855800000000     0.435160000000     0.0686509  
C309     C      0.983020000000     0.786720000000     0.406320000000    -0.129104   
C310     C      0.020880000000     0.728170000000     0.467350000000    -0.0810277  
C311     C      0.053380000000     0.819070000000     0.438140000000    -0.097185   
C312     C      0.015560000000     0.742410000000     0.432690000000     0.0192267  
C313     C      0.018140000000     0.783540000000     0.424860000000     0.0525946  
C314     C      0.012950000000     0.687650000000     0.475200000000     0.0592379  
C315     C      0.996520000000     0.675280000000     0.415060000000     0.0509552  
C316     C      0.003280000000     0.715400000000     0.406400000000    -0.0721272  
C317     C      0.942620000000     0.825090000000     0.383180000000    -0.218477   
C318     C      0.961440000000     0.291370000000     0.554270000000     0.140919   
C319     C      0.926510000000     0.278670000000     0.496990000000     0.0686079  
C320     C      0.952460000000     0.250020000000     0.559610000000    -0.121743   
C321     C      0.892710000000     0.146110000000     0.526380000000    -0.0812504  
C322     C      0.917070000000     0.237580000000     0.502020000000    -0.0941063  
C323     C      0.930410000000     0.182610000000     0.535790000000     0.0242774  
C324     C      0.931170000000     0.223050000000     0.533180000000     0.0465363  
C325     C      0.895850000000     0.110300000000     0.524220000000     0.0629994  
C326     C      0.972060000000     0.146120000000     0.540930000000     0.0606023  
C327     C      0.969800000000     0.181530000000     0.544520000000    -0.0814516  
C328     C      0.987880000000     0.318710000000     0.583490000000    -0.216176   
C329     C      0.936010000000     0.931450000000     0.653640000000     0.146449   
C330     C      0.901060000000     0.972830000000     0.641280000000     0.0687728  
C331     C      0.933480000000     0.931780000000     0.689790000000    -0.123416   
C332     C      0.926360000000     0.992400000000     0.754680000000    -0.0837815  
C333     C      0.897810000000     0.973160000000     0.677330000000    -0.0939936  
C334     C      0.915620000000     0.955500000000     0.740860000000     0.0257804  
C335     C      0.915100000000     0.953260000000     0.702170000000     0.0470274  
C336     C      0.932190000000     0.995200000000     0.791130000000     0.0629544  
C337     C      0.915120000000     0.925390000000     0.800810000000     0.064231   
C338     C      0.908860000000     0.921510000000     0.764610000000    -0.082763   
C339     C      0.951720000000     0.903430000000     0.642860000000    -0.214357   
C340     C      0.007680000000     0.029550000000     0.293910000000     0.147056   
C341     C      0.043130000000     0.988710000000     0.307680000000     0.0658714  
C342     C      0.010800000000     0.028730000000     0.257920000000    -0.12002    
C343     C      0.039130000000     0.039760000000     0.184100000000    -0.0828457  
C344     C      0.046840000000     0.987820000000     0.271800000000    -0.0949938  
C345     C      0.030680000000     0.005340000000     0.207810000000     0.0274547  
C346     C      0.029820000000     0.007380000000     0.246350000000     0.0465715  
C347     C      0.034680000000     0.036390000000     0.147860000000     0.0665259  
C348     C      0.015600000000     0.966070000000     0.157480000000     0.0652868  
C349     C      0.019780000000     0.968400000000     0.193990000000    -0.0838256  
C350     C      0.991370000000     0.057540000000     0.303710000000    -0.220498   
C351     C      0.795590000000     0.795560000000     0.930390000000     0.148313   
C352     C      0.764440000000     0.829470000000     0.955720000000     0.0698226  
C353     C      0.759940000000     0.757300000000     0.941450000000    -0.124088   
C354     C      0.702620000000     0.684920000000     0.991570000000    -0.0868052  
C355     C      0.728860000000     0.792230000000     0.966470000000    -0.0958224  
C356     C      0.692710000000     0.715800000000     0.976870000000     0.0252493  
C357     C      0.727470000000     0.755510000000     0.961180000000     0.0476341  
C358     C      0.669370000000     0.647570000000     0.005740000000     0.0642023  
C359     C      0.617400000000     0.671430000000     0.993080000000     0.060895   
C360     C      0.649650000000     0.708940000000     0.978470000000    -0.0845057  
C361     C      0.828250000000     0.794900000000     0.908020000000    -0.222748   
C362     C      0.197820000000     0.128600000000     0.002780000000     0.153443   
C363     C      0.161520000000     0.164910000000     0.014510000000     0.0724125  
C364     C      0.233720000000     0.165370000000     0.990470000000    -0.124834   
C365     C      0.311010000000     0.247800000000     0.970000000000    -0.0837254  
C366     C      0.197510000000     0.202250000000     0.003360000000    -0.0954738  
C367     C      0.267570000000     0.240690000000     0.970570000000     0.0250045  
C368     C      0.232830000000     0.202490000000     0.988700000000     0.0488313  
C369     C      0.342850000000     0.284040000000     0.953110000000     0.0631497  
C370     C      0.290010000000     0.306240000000     0.936590000000     0.0649173  
C371     C      0.257110000000     0.269940000000     0.952390000000    -0.0849745  
C372     C      0.202680000000     0.090240000000     0.007260000000    -0.218175   
C373     C      0.672780000000     0.987100000000     0.042230000000     0.146964   
C374     C      0.693220000000     0.014970000000     0.983820000000     0.0697556  
C375     C      0.716920000000     0.997550000000     0.052060000000    -0.12441    
C376     C      0.798910000000     0.988980000000     0.055870000000    -0.0844604  
C377     C      0.737140000000     0.025020000000     0.993120000000    -0.0959109  
C378     C      0.794420000000     0.021330000000     0.037030000000     0.022369   
C379     C      0.749400000000     0.016090000000     0.027530000000     0.0489627  
C380     C      0.840110000000     0.991140000000     0.060940000000     0.06294    
C381     C      0.874040000000     0.058300000000     0.032140000000     0.0575873  
C382     C      0.832800000000     0.056890000000     0.025970000000    -0.0869101  
C383     C      0.639530000000     0.962370000000     0.069890000000    -0.216524   
C384     C      0.266850000000     0.940780000000     0.884320000000     0.143688   
C385     C      0.253040000000     0.926210000000     0.945190000000     0.069232   
C386     C      0.221840000000     0.928240000000     0.876290000000    -0.122313   
C387     C      0.110700000000     0.882500000000     0.911870000000    -0.083669   
C388     C      0.208420000000     0.914190000000     0.937550000000    -0.094408   
C389     C      0.148250000000     0.912790000000     0.894740000000     0.0252417  
C390     C      0.192540000000     0.916040000000     0.902830000000     0.0474262  
C391     C      0.072750000000     0.886930000000     0.910170000000     0.0613703  
C392     C      0.107480000000     0.948410000000     0.873060000000     0.0685847  
C393     C      0.144990000000     0.944290000000     0.873160000000    -0.0833613  
C394     C      0.296050000000     0.957320000000     0.853340000000    -0.215474   
C395     C      0.895140000000     0.618260000000     0.963110000000     0.148263   
C396     C      0.934150000000     0.631600000000     0.018970000000     0.0727011  
C397     C      0.887810000000     0.651620000000     0.964730000000    -0.126313   
C398     C      0.915320000000     0.740680000000     0.958530000000    -0.0865204  
C399     C      0.927940000000     0.665010000000     0.020760000000    -0.0992164  
C400     C      0.908680000000     0.717220000000     0.990790000000     0.0255335  
C401     C      0.906360000000     0.676570000000     0.992760000000     0.0492151  
C402     C      0.925340000000     0.781410000000     0.957300000000     0.0650573  
C403     C      0.921810000000     0.776640000000     0.019130000000     0.0652491  
C404     C      0.910570000000     0.735250000000     0.021230000000    -0.0855719  
C405     C      0.872210000000     0.591600000000     0.932830000000    -0.218316   
C406     C      0.025980000000     0.188040000000     0.930030000000     0.14544    
C407     C      0.059860000000     0.188180000000     0.987350000000     0.0740242  
C408     C      0.032270000000     0.227410000000     0.933510000000    -0.124235   
C409     C      0.052550000000     0.312510000000     0.943840000000    -0.0860257  
C410     C      0.067710000000     0.227560000000     0.990720000000    -0.0995579  
C411     C      0.049200000000     0.283330000000     0.971410000000     0.0267899  
C412     C      0.051290000000     0.246460000000     0.964680000000     0.0500412  
C413     C      0.040690000000     0.341760000000     0.948460000000     0.0685111  
C414     C      0.028080000000     0.317720000000     0.008460000000     0.0665653  
C415     C      0.038330000000     0.286960000000     0.004430000000    -0.0839043  
C416     C      0.005180000000     0.169890000000     0.895360000000    -0.212045   
H1       H      0.015690000000     0.995750000000     0.893300000000     0.202982   
H2       H      0.935080000000     0.045780000000     0.972760000000     0.194085   
H3       H      0.900870000000     0.886270000000     0.994620000000     0.197916   
H4       H      0.063610000000     0.004830000000     0.034650000000     0.195001   
H5       H      0.914440000000     0.067730000000     0.912100000000     0.12891    
H6       H      0.832140000000     0.995940000000     0.977950000000     0.204242   
H7       H      0.829860000000     0.900760000000     0.035610000000     0.131769   
H8       H      0.904500000000     0.874710000000     0.074550000000     0.186566   
H9       H      0.048130000000     0.903900000000     0.034610000000     0.144755   
H10      H      0.125790000000     0.987670000000     0.011200000000     0.191634   
H11      H      0.115430000000     0.068960000000     0.908960000000     0.130347   
H12      H      0.009810000000     0.091860000000     0.851440000000     0.198267   
H13      H      0.945490000000     0.866010000000     0.092390000000     0.199683   
H14      H      0.110730000000     0.955740000000     0.979470000000     0.199635   
H15      H      0.052660000000     0.089420000000     0.873660000000     0.186536   
H16      H      0.847650000000     0.997750000000     0.937870000000     0.199592   
H17      H      0.866970000000     0.926290000000     0.449150000000     0.201671   
H18      H      0.024850000000     0.054460000000     0.408290000000     0.189889   
H19      H      0.986150000000     0.032410000000     0.545710000000     0.19365    
H20      H      0.017830000000     0.920690000000     0.495220000000     0.194696   
H21      H      0.967190000000     0.076240000000     0.379840000000     0.126935   
H22      H      0.993580000000     0.127740000000     0.436620000000     0.199347   
H23      H      0.087870000000     0.100590000000     0.531060000000     0.132699   
H24      H      0.063430000000     0.042900000000     0.585640000000     0.186746   
H25      H      0.979860000000     0.890260000000     0.567640000000     0.130567   
H26      H      0.956000000000     0.842300000000     0.515570000000     0.187897   
H27      H      0.883740000000     0.867000000000     0.406560000000     0.134187   
H28      H      0.891570000000     0.926910000000     0.359880000000     0.194245   
H29      H      0.068990000000     0.003100000000     0.605410000000     0.201052   
H30      H      0.903240000000     0.813190000000     0.502160000000     0.201749   
H31      H      0.857630000000     0.946650000000     0.359440000000     0.200896   
H32      H      0.042100000000     0.138550000000     0.422380000000     0.194336   
H33      H      0.919020000000     0.431460000000     0.057880000000     0.195777   
H34      H      0.901570000000     0.441320000000     0.913490000000     0.192762   
H35      H      0.019780000000     0.579940000000     0.978520000000     0.192782   
H36      H      0.055420000000     0.453630000000     0.987450000000     0.202968   
H37      H      0.816160000000     0.397720000000     0.932770000000     0.130841   
H38      H      0.860370000000     0.502760000000     0.910030000000     0.203339   
H39      H      0.026080000000     0.600690000000     0.906220000000     0.130929   
H40      H      0.112230000000     0.613220000000     0.938920000000     0.189356   
H41      H      0.128490000000     0.530180000000     0.033710000000     0.139061   
H42      H      0.086290000000     0.447040000000     0.059300000000     0.19449    
H43      H      0.916120000000     0.352930000000     0.057830000000     0.124527   
H44      H      0.823370000000     0.345490000000     0.032020000000     0.185376   
H45      H      0.150340000000     0.609320000000     0.967220000000     0.199434   
H46      H      0.057420000000     0.423650000000     0.095030000000     0.201917   
H47      H      0.792810000000     0.349030000000     0.996380000000     0.192092   
H48      H      0.887440000000     0.518660000000     0.873020000000     0.199195   
H49      H      0.930510000000     0.469390000000     0.561290000000     0.205123   
H50      H      0.898720000000     0.443790000000     0.420760000000     0.188809   
H51      H      0.045380000000     0.584550000000     0.461690000000     0.190381   
H52      H      0.040830000000     0.436930000000     0.500420000000     0.183465   
H53      H      0.820610000000     0.428200000000     0.437110000000     0.128063   
H54      H      0.890800000000     0.541880000000     0.404640000000     0.203049   
H55      H      0.045040000000     0.579540000000     0.385320000000     0.130802   
H56      H      0.117390000000     0.602410000000     0.434510000000     0.185472   
H57      H      0.120430000000     0.490280000000     0.519320000000     0.130255   
H58      H      0.065090000000     0.426380000000     0.565580000000     0.181217   
H59      H      0.965930000000     0.393610000000     0.613240000000     0.140143   
H60      H      0.812710000000     0.397530000000     0.540340000000     0.193887   
H61      H      0.150910000000     0.581790000000     0.440550000000     0.197968   
H62      H      0.068030000000     0.457000000000     0.595100000000     0.197669   
H63      H      0.789210000000     0.400630000000     0.500560000000     0.194956   
H64      H      0.890260000000     0.513430000000     0.374120000000     0.198499   
H65      H      0.462410000000     0.923840000000     0.894970000000     0.194251   
H66      H      0.430300000000     0.909950000000     0.033200000000     0.192831   
H67      H      0.580260000000     0.041000000000     0.984190000000     0.195692   
H68      H      0.421490000000     0.032950000000     0.939350000000     0.199515   
H69      H      0.425430000000     0.839710000000     0.027480000000     0.133662   
H70      H      0.520750000000     0.896250000000     0.053420000000     0.201306   
H71      H      0.573110000000     0.051820000000     0.055210000000     0.129587   
H72      H      0.582580000000     0.131790000000     0.000270000000     0.190422   
H73      H      0.507990000000     0.109910000000     0.898590000000     0.13959    
H74      H      0.405320000000     0.044630000000     0.871680000000     0.192841   
H75      H      0.372460000000     0.905110000000     0.866530000000     0.126734   
H76      H      0.369550000000     0.843380000000     0.908060000000     0.185897   
H77      H      0.558520000000     0.152150000000     0.970370000000     0.197932   
H78      H      0.444310000000     0.050810000000     0.846060000000     0.19938    
H79      H      0.374410000000     0.809020000000     0.937930000000     0.199848   
H80      H      0.518340000000     0.916630000000     0.088900000000     0.198319   
H81      H      0.376810000000     0.935790000000     0.407260000000     0.195961   
H82      H      0.436930000000     0.952610000000     0.545860000000     0.192716   
H83      H      0.539180000000     0.945070000000     0.453530000000     0.191757   
H84      H      0.519530000000     0.081000000000     0.441350000000     0.197212   
H85      H      0.363700000000     0.882220000000     0.549490000000     0.131431   
H86      H      0.441470000000     0.848750000000     0.548090000000     0.205255   
H87      H      0.588110000000     0.961750000000     0.522490000000     0.131396   
H88      H      0.627670000000     0.004600000000     0.451120000000     0.187854   
H89      H      0.580310000000     0.090720000000     0.385930000000     0.13327    
H90      H      0.497360000000     0.079960000000     0.352510000000     0.193963   
H91      H      0.348550000000     0.994100000000     0.396720000000     0.125487   
H92      H      0.306140000000     0.944510000000     0.458190000000     0.189795   
H93      H      0.648350000000     0.051050000000     0.428960000000     0.197261   
H94      H      0.486000000000     0.107140000000     0.377030000000     0.195088   
H95      H      0.285210000000     0.900950000000     0.484640000000     0.201602   
H96      H      0.449330000000     0.880230000000     0.578600000000     0.192902   
H97      H      0.419350000000     0.455080000000     0.038020000000     0.201296   
H98      H      0.413420000000     0.445120000000     0.896810000000     0.194182   
H99      H      0.547530000000     0.579200000000     0.952180000000     0.194824   
H100     H      0.544660000000     0.432590000000     0.987430000000     0.19757    
H101     H      0.345790000000     0.460280000000     0.906810000000     0.132379   
H102     H      0.407020000000     0.547600000000     0.881390000000     0.197882   
H103     H      0.561660000000     0.586320000000     0.880420000000     0.126366   
H104     H      0.633540000000     0.593910000000     0.927260000000     0.187071   
H105     H      0.622800000000     0.503820000000     0.029600000000     0.138829   
H106     H      0.564980000000     0.428750000000     0.057550000000     0.18767    
H107     H      0.402360000000     0.358670000000     0.051470000000     0.136557   
H108     H      0.337540000000     0.356970000000     0.008440000000     0.193958   
H109     H      0.665920000000     0.584240000000     0.957990000000     0.196502   
H110     H      0.530430000000     0.408250000000     0.090250000000     0.198075   
H111     H      0.303170000000     0.376490000000     0.998980000000     0.202032   
H112     H      0.405460000000     0.515650000000     0.853820000000     0.192611   
H113     H      0.398940000000     0.442960000000     0.524610000000     0.192627   
H114     H      0.428180000000     0.458110000000     0.383930000000     0.191902   
H115     H      0.545050000000     0.579010000000     0.465100000000     0.198598   
H116     H      0.538280000000     0.428410000000     0.487810000000     0.203145   
H117     H      0.338460000000     0.455900000000     0.391220000000     0.128247   
H118     H      0.410190000000     0.536150000000     0.374340000000     0.193594   
H119     H      0.579950000000     0.598220000000     0.397930000000     0.129938   
H120     H      0.656470000000     0.588050000000     0.465240000000     0.191511   
H121     H      0.606280000000     0.494050000000     0.546230000000     0.134429   
H122     H      0.523390000000     0.382750000000     0.550940000000     0.195002   
H123     H      0.380590000000     0.361460000000     0.546950000000     0.12539    
H124     H      0.310930000000     0.410390000000     0.494350000000     0.194024   
H125     H      0.667240000000     0.559280000000     0.497470000000     0.199657   
H126     H      0.535280000000     0.420780000000     0.575970000000     0.198086   
H127     H      0.322170000000     0.371640000000     0.495190000000     0.187413   
H128     H      0.445750000000     0.550750000000     0.342790000000     0.19858    
H129     H      0.436530000000     0.403570000000     0.631790000000     0.0284985  
H130     H      0.438130000000     0.498190000000     0.802170000000     0.0141391  
H131     H      0.475590000000     0.527310000000     0.690920000000     0.0486829  
H132     H      0.430860000000     0.499020000000     0.739740000000     0.0515144  
H133     H      0.437020000000     0.398310000000     0.694800000000     0.0477399  
H134     H      0.488010000000     0.419560000000     0.744170000000     0.0579648  
H135     H      0.473170000000     0.531270000000     0.627410000000     0.0228278  
H136     H      0.477610000000     0.384980000000     0.829390000000     0.0847861  
H137     H      0.516190000000     0.400820000000     0.795990000000     0.0713982  
H138     H      0.529480000000     0.432030000000     0.831990000000     0.0879206  
H139     H      0.537460000000     0.557140000000     0.304630000000     0.0266928  
H140     H      0.535500000000     0.467090000000     0.131730000000     0.0187481  
H141     H      0.497050000000     0.434820000000     0.242850000000     0.0487051  
H142     H      0.545670000000     0.466690000000     0.194150000000     0.0517248  
H143     H      0.539970000000     0.564430000000     0.241710000000     0.0484499  
H144     H      0.484120000000     0.541900000000     0.193310000000     0.0574181  
H145     H      0.495480000000     0.428460000000     0.306320000000     0.0242285  
H146     H      0.436430000000     0.527090000000     0.108420000000     0.0797744  
H147     H      0.454310000000     0.560970000000     0.142940000000     0.0689125  
H148     H      0.488240000000     0.574500000000     0.106530000000     0.0828261  
H149     H      0.529560000000     0.833610000000     0.514980000000     0.0240201  
H150     H      0.532030000000     0.668490000000     0.409880000000     0.0244649  
H151     H      0.501900000000     0.773730000000     0.401580000000     0.0506416  
H152     H      0.554150000000     0.740310000000     0.412970000000     0.0529643  
H153     H      0.542190000000     0.775890000000     0.511810000000     0.0465943  
H154     H      0.467460000000     0.706920000000     0.496640000000     0.0605346  
H155     H      0.488960000000     0.830360000000     0.405350000000     0.0288755  
H156     H      0.440680000000     0.615150000000     0.520760000000     0.0836397  
H157     H      0.408660000000     0.639140000000     0.502430000000     0.0718096  
H158     H      0.407220000000     0.598880000000     0.480430000000     0.0900846  
H159     H      0.388380000000     0.106010000000     0.413800000000     0.024277   
H160     H      0.471510000000     0.307480000000     0.427600000000     0.0250438  
H161     H      0.428920000000     0.179440000000     0.521130000000     0.0494643  
H162     H      0.446440000000     0.236550000000     0.423020000000     0.0534147  
H163     H      0.371060000000     0.161100000000     0.415490000000     0.0468046  
H164     H      0.363980000000     0.203510000000     0.509330000000     0.0585437  
H165     H      0.447710000000     0.126110000000     0.518390000000     0.0261202  
H166     H      0.365740000000     0.299510000000     0.505900000000     0.0837183  
H167     H      0.348860000000     0.250390000000     0.529830000000     0.0705792  
H168     H      0.401280000000     0.292810000000     0.541260000000     0.0908643  
H169     H      0.576650000000     0.991080000000     0.813420000000     0.0257637  
H170     H      0.510170000000     0.049340000000     0.619750000000     0.0260105  
H171     H      0.467210000000     0.004180000000     0.727510000000     0.048214   
H172     H      0.514490000000     0.051740000000     0.682090000000     0.0514752  
H173     H      0.586760000000     0.996310000000     0.750560000000     0.0482918  
H174     H      0.551910000000     0.957340000000     0.697320000000     0.0575679  
H175     H      0.458230000000     0.999310000000     0.789070000000     0.0252476  
H176     H      0.579080000000     0.967010000000     0.608070000000     0.093935   
H177     H      0.575470000000     0.940420000000     0.650820000000     0.0718427  
H178     H      0.528140000000     0.921830000000     0.620650000000     0.0820121  
H179     H      0.495050000000     0.964050000000     0.137310000000     0.022459   
H180     H      0.434160000000     0.908150000000     0.305160000000     0.0260435  
H181     H      0.361450000000     0.960250000000     0.172990000000     0.0476961  
H182     H      0.434200000000     0.907820000000     0.242820000000     0.0515248  
H183     H      0.484220000000     0.958910000000     0.198740000000     0.0479233  
H184     H      0.394750000000     0.000840000000     0.226170000000     0.0584815  
H185     H      0.373200000000     0.965450000000     0.110620000000     0.025645   
H186     H      0.412830000000     0.034140000000     0.303100000000     0.0843719  
H187     H      0.366800000000     0.015120000000     0.271700000000     0.0706334  
H188     H      0.362040000000     0.988030000000     0.314350000000     0.0875892  
H189     H      0.587080000000     0.879860000000     0.933680000000     0.0247742  
H190     H      0.503500000000     0.655350000000     0.884850000000     0.0257926  
H191     H      0.459260000000     0.753380000000     0.892250000000     0.0480644  
H192     H      0.518980000000     0.725490000000     0.870330000000     0.0520169  
H193     H      0.592440000000     0.816420000000     0.936720000000     0.0489712  
H194     H      0.522770000000     0.741470000000     0.978990000000     0.0593757  
H195     H      0.454310000000     0.815810000000     0.891260000000     0.0181918  
H196     H      0.524230000000     0.655470000000     0.017350000000     0.0888886  
H197     H      0.502970000000     0.689150000000     0.021840000000     0.0688827  
H198     H      0.466560000000     0.638840000000     0.008410000000     0.0817555  
H199     H      0.375700000000     0.080920000000     0.993340000000     0.0221413  
H200     H      0.445910000000     0.290560000000     0.943320000000     0.0260431  
H201     H      0.511720000000     0.201190000000     0.034170000000     0.0459995  
H202     H      0.431510000000     0.220240000000     0.951950000000     0.051753   
H203     H      0.377720000000     0.147560000000     0.990730000000     0.0464444  
H204     H      0.470980000000     0.234150000000     0.061050000000     0.0571497  
H205     H      0.509220000000     0.135360000000     0.035570000000     0.0218673  
H206     H      0.469330000000     0.319750000000     0.071710000000     0.0825607  
H207     H      0.504270000000     0.297170000000     0.083710000000     0.0665526  
H208     H      0.523250000000     0.342700000000     0.054050000000     0.0779645  
H209     H      0.663460000000     0.095580000000     0.481380000000     0.0170187  
H210     H      0.829150000000     0.297030000000     0.423610000000     0.0184406  
H211     H      0.678650000000     0.228710000000     0.503740000000     0.048235   
H212     H      0.761080000000     0.230970000000     0.428680000000     0.0516197  
H213     H      0.732930000000     0.157350000000     0.471700000000     0.0480829  
H214     H      0.759640000000     0.245110000000     0.537590000000     0.0607288  
H215     H      0.608150000000     0.166000000000     0.512120000000     0.0237993  
H216     H      0.826270000000     0.334030000000     0.549220000000     0.078016   
H217     H      0.830010000000     0.288970000000     0.565930000000     0.0734768  
H218     H      0.874060000000     0.329820000000     0.541400000000     0.0943535  
H219     H      0.261500000000     0.827850000000     0.420180000000     0.017632   
H220     H      0.169250000000     0.600620000000     0.508280000000     0.0180879  
H221     H      0.293630000000     0.717730000000     0.472680000000     0.047564   
H222     H      0.228420000000     0.656500000000     0.476990000000     0.0487643  
H223     H      0.201620000000     0.763670000000     0.442750000000     0.0474241  
H224     H      0.182640000000     0.738320000000     0.499860000000     0.0588031  
H225     H      0.352020000000     0.781640000000     0.446870000000     0.0257837  
H226     H      0.104860000000     0.664390000000     0.562370000000     0.0876487  
H227     H      0.131990000000     0.716900000000     0.543730000000     0.0711203  
H228     H      0.085020000000     0.678990000000     0.520550000000     0.0881479  
H229     H      0.665230000000     0.547110000000     0.420670000000     0.0170983  
H230     H      0.803720000000     0.466860000000     0.548000000000     0.0174457  
H231     H      0.690380000000     0.431310000000     0.467430000000     0.0456434  
H232     H      0.734400000000     0.455000000000     0.518950000000     0.0493447  
H233     H      0.736470000000     0.561860000000     0.447320000000     0.0439956  
H234     H      0.802200000000     0.563500000000     0.449250000000     0.055893   
H235     H      0.617430000000     0.417990000000     0.442890000000     0.0218749  
H236     H      0.902880000000     0.580060000000     0.462690000000     0.087685   
H237     H      0.875580000000     0.610310000000     0.459840000000     0.0702644  
H238     H      0.904050000000     0.605250000000     0.500350000000     0.0912933  
H239     H      0.318860000000     0.492880000000     0.532960000000     0.0180563  
H240     H      0.136370000000     0.516810000000     0.412290000000     0.0122633  
H241     H      0.256320000000     0.502050000000     0.412520000000     0.0495613  
H242     H      0.211360000000     0.534220000000     0.429520000000     0.049574   
H243     H      0.240650000000     0.475910000000     0.524060000000     0.0465421  
H244     H      0.167990000000     0.415410000000     0.485340000000     0.0556096  
H245     H      0.332110000000     0.518350000000     0.421990000000     0.0167205  
H246     H      0.059760000000     0.369220000000     0.447350000000     0.0902241  
H247     H      0.094590000000     0.364850000000     0.483730000000     0.0687505  
H248     H      0.059700000000     0.386110000000     0.489270000000     0.0703789  
H249     H      0.006680000000     0.460690000000     0.655680000000     0.0177945  
H250     H      0.944060000000     0.527010000000     0.813070000000     0.0148617  
H251     H      0.999770000000     0.574960000000     0.700500000000     0.0449809  
H252     H      0.953140000000     0.538670000000     0.750380000000     0.0518574  
H253     H      0.004210000000     0.460800000000     0.717130000000     0.047819   
H254     H      0.048380000000     0.496010000000     0.764470000000     0.0592928  
H255     H      0.999900000000     0.572880000000     0.637260000000     0.020132   
H256     H      0.030250000000     0.448730000000     0.843240000000     0.0902698  
H257     H      0.076840000000     0.485820000000     0.819280000000     0.0732196  
H258     H      0.062750000000     0.500620000000     0.856430000000     0.0948353  
H259     H      0.974190000000     0.406260000000     0.335780000000     0.0248713  
H260     H      0.998240000000     0.527270000000     0.149350000000     0.0221213  
H261     H      0.939340000000     0.498970000000     0.252140000000     0.04871    
H262     H      0.992930000000     0.522880000000     0.211550000000     0.0525387  
H263     H      0.981330000000     0.406970000000     0.273540000000     0.0475506  
H264     H      0.946600000000     0.392710000000     0.217560000000     0.056303   
H265     H      0.935160000000     0.499180000000     0.313990000000     0.0205757  
H266     H      0.975810000000     0.384600000000     0.140730000000     0.0832628  
H267     H      0.930180000000     0.357890000000     0.168410000000     0.0682435  
H268     H      0.923610000000     0.382790000000     0.126930000000     0.0757695  
H269     H      0.633400000000     0.167490000000     0.918480000000     0.0207429  
H270     H      0.854780000000     0.321030000000     0.876620000000     0.0165716  
H271     H      0.761610000000     0.147620000000     0.909850000000     0.0478824  
H272     H      0.790530000000     0.254910000000     0.863400000000     0.0512022  
H273     H      0.706110000000     0.226950000000     0.915070000000     0.0464839  
H274     H      0.788920000000     0.211770000000     0.972350000000     0.0586868  
H275     H      0.687380000000     0.087790000000     0.912270000000     0.0250698  
H276     H      0.896080000000     0.300450000000     0.996250000000     0.0863496  
H277     H      0.843790000000     0.289930000000     0.010920000000     0.0760565  
H278     H      0.855080000000     0.248450000000     0.009010000000     0.0709093  
H279     H      0.311680000000     0.787300000000     0.996000000000     0.0202786  
H280     H      0.150940000000     0.619990000000     0.069330000000     0.0146274  
H281     H      0.202480000000     0.801820000000     0.055600000000     0.0472429  
H282     H      0.214370000000     0.687760000000     0.067560000000     0.0505537  
H283     H      0.245380000000     0.727050000000     0.013030000000     0.0460609  
H284     H      0.130610000000     0.740680000000     0.031820000000     0.0569499  
H285     H      0.270850000000     0.863430000000     0.037450000000     0.0251825  
H286     H      0.030290000000     0.651130000000     0.055040000000     0.0886304  
H287     H      0.053280000000     0.699970000000     0.029230000000     0.0724296  
H288     H      0.038800000000     0.653510000000     0.009330000000     0.0782906  
H289     H      0.596270000000     0.394250000000     0.944280000000     0.0227205  
H290     H      0.849040000000     0.532230000000     0.008440000000     0.0275346  
H291     H      0.724810000000     0.530370000000     0.961970000000     0.044032   
H292     H      0.785760000000     0.530310000000     0.976710000000     0.0476745  
H293     H      0.662320000000     0.397300000000     0.974490000000     0.04471    
H294     H      0.705940000000     0.406700000000     0.022500000000     0.0551039  
H295     H      0.661030000000     0.525340000000     0.928410000000     0.0144558  
H296     H      0.797120000000     0.408760000000     0.082190000000     0.0795087  
H297     H      0.738150000000     0.385150000000     0.073870000000     0.0672595  
H298     H      0.770140000000     0.375360000000     0.046990000000     0.0772521  
H299     H      0.161560000000     0.561280000000     0.930100000000     0.0173614  
H300     H      0.293460000000     0.454310000000     0.026930000000     0.0174392  
H301     H      0.181480000000     0.438720000000     0.950630000000     0.0491238  
H302     H      0.225180000000     0.452470000000     0.005110000000     0.0515184  
H303     H      0.232780000000     0.569460000000     0.952410000000     0.0456911  
H304     H      0.296970000000     0.566480000000     0.942950000000     0.0561006  
H305     H      0.110040000000     0.431510000000     0.929640000000     0.0234473  
H306     H      0.394690000000     0.567330000000     0.946210000000     0.0851253  
H307     H      0.372750000000     0.602110000000     0.944100000000     0.0695504  
H308     H      0.400830000000     0.594460000000     0.983810000000     0.0861226  
H309     H      0.755370000000     0.862550000000     0.513620000000     0.0226813  
H310     H      0.664110000000     0.623100000000     0.533100000000     0.0206374  
H311     H      0.769960000000     0.742390000000     0.565980000000     0.0459447  
H312     H      0.722970000000     0.690450000000     0.535460000000     0.0483132  
H313     H      0.688340000000     0.795960000000     0.522180000000     0.0470617  
H314     H      0.633210000000     0.734440000000     0.549640000000     0.0561485  
H315     H      0.834560000000     0.807000000000     0.553170000000     0.0180068  
H316     H      0.540550000000     0.637910000000     0.565640000000     0.0863139  
H317     H      0.558050000000     0.690920000000     0.551120000000     0.0711204  
H318     H      0.539340000000     0.653730000000     0.519390000000     0.0913442  
H319     H      0.385290000000     0.294580000000     0.399510000000     0.0283501  
H320     H      0.155850000000     0.161380000000     0.467670000000     0.0261338  
H321     H      0.232040000000     0.269700000000     0.390230000000     0.0489569  
H322     H      0.221430000000     0.223290000000     0.452300000000     0.0510435  
H323     H      0.324430000000     0.223420000000     0.404500000000     0.0485861  
H324     H      0.239900000000     0.166040000000     0.370720000000     0.0563727  
H325     H      0.292510000000     0.339140000000     0.386190000000     0.0278035  
H326     H      0.132240000000     0.083430000000     0.366840000000     0.0832119  
H327     H      0.187840000000     0.100660000000     0.355950000000     0.0697998  
H328     H      0.166110000000     0.065660000000     0.393940000000     0.0817178  
H329     H      0.813180000000     0.000850000000     0.372630000000     0.0248066  
H330     H      0.561810000000     0.899690000000     0.400640000000     0.0242481  
H331     H      0.696840000000     0.951910000000     0.456600000000     0.0464177  
H332     H      0.633040000000     0.903350000000     0.412300000000     0.0527271  
H333     H      0.741320000000     0.992370000000     0.351470000000     0.0470907  
H334     H      0.694810000000     0.026330000000     0.362410000000     0.0580646  
H335     H      0.769240000000     0.961180000000     0.477340000000     0.0263387  
H336     H      0.625260000000     0.054420000000     0.359190000000     0.0727354  
H337     H      0.648330000000     0.046680000000     0.323310000000     0.0685094  
H338     H      0.589300000000     0.020290000000     0.326460000000     0.0825644  
H339     H      0.310390000000     0.937760000000     0.570670000000     0.0174614  
H340     H      0.136900000000     0.974840000000     0.574890000000     0.0213754  
H341     H      0.326820000000     0.077100000000     0.550640000000     0.0488817  
H342     H      0.207580000000     0.982810000000     0.597630000000     0.0510843  
H343     H      0.246510000000     0.946300000000     0.573910000000     0.0482253  
H344     H      0.263270000000     0.044700000000     0.499420000000     0.0609016  
H345     H      0.390910000000     0.067410000000     0.549490000000     0.0258956  
H346     H      0.175170000000     0.063510000000     0.466870000000     0.0927916  
H347     H      0.225550000000     0.066400000000     0.456580000000     0.0718629  
H348     H      0.174190000000     0.021440000000     0.447470000000     0.08544    
H349     H      0.016240000000     0.677860000000     0.502590000000     0.0224565  
H350     H      0.077700000000     0.881770000000     0.447910000000     0.0178787  
H351     H      0.998560000000     0.725130000000     0.379270000000     0.0430033  
H352     H      0.081590000000     0.818010000000     0.452080000000     0.0500433  
H353     H      0.029440000000     0.747740000000     0.488580000000     0.0457252  
H354     H      0.955910000000     0.759980000000     0.394950000000     0.0583156  
H355     H      0.987030000000     0.655570000000     0.393790000000     0.0278086  
H356     H      0.951510000000     0.856910000000     0.372230000000     0.076728   
H357     H      0.931110000000     0.804950000000     0.361160000000     0.0689986  
H358     H      0.914640000000     0.813650000000     0.400380000000     0.0807177  
H359     H      0.866740000000     0.083210000000     0.515310000000     0.0253024  
H360     H      0.915120000000     0.288130000000     0.471970000000     0.0290636  
H361     H      0.999700000000     0.208840000000     0.551980000000     0.0466688  
H362     H      0.900780000000     0.217860000000     0.480760000000     0.0520582  
H363     H      0.861480000000     0.145630000000     0.519660000000     0.0483188  
H364     H      0.963650000000     0.239110000000     0.583980000000     0.0561289  
H365     H      0.003960000000     0.147540000000     0.546510000000     0.0290013  
H366     H      0.967180000000     0.328570000000     0.595110000000     0.0817365  
H367     H      0.999300000000     0.302830000000     0.605050000000     0.0654421  
H368     H      0.017490000000     0.346330000000     0.573100000000     0.0724779  
H369     H      0.941680000000     0.024750000000     0.800430000000     0.0226404  
H370     H      0.888900000000     0.990130000000     0.623150000000     0.0228626  
H371     H      0.899460000000     0.892020000000     0.755310000000     0.0473307  
H372     H      0.882460000000     0.989500000000     0.685660000000     0.0513508  
H373     H      0.932100000000     0.019570000000     0.737470000000     0.0478135  
H374     H      0.946630000000     0.915620000000     0.708290000000     0.0573453  
H375     H      0.910330000000     0.898340000000     0.817890000000     0.0239184  
H376     H      0.987470000000     0.921550000000     0.638220000000     0.0809044  
H377     H      0.947330000000     0.878470000000     0.663690000000     0.0688142  
H378     H      0.933350000000     0.888880000000     0.618570000000     0.0798273  
H379     H      0.040850000000     0.063820000000     0.130810000000     0.0264597  
H380     H      0.055380000000     0.971890000000     0.326330000000     0.0219105  
H381     H      0.012760000000     0.940930000000     0.211200000000     0.0480161  
H382     H      0.062560000000     0.971500000000     0.264070000000     0.0503811  
H383     H      0.048570000000     0.069230000000     0.193470000000     0.0483086  
H384     H      0.997800000000     0.044580000000     0.238880000000     0.0556788  
H385     H      0.006000000000     0.936520000000     0.148140000000     0.0240235  
H386     H      0.009800000000     0.073070000000     0.327620000000     0.0764486  
H387     H      0.995170000000     0.081770000000     0.282310000000     0.0696629  
H388     H      0.955720000000     0.039140000000     0.308600000000     0.0879212  
H389     H      0.678180000000     0.624060000000     0.015980000000     0.018009   
H390     H      0.764300000000     0.856890000000     0.961880000000     0.0288849  
H391     H      0.640280000000     0.731780000000     0.967320000000     0.0487021  
H392     H      0.703950000000     0.792560000000     0.980740000000     0.0519915  
H393     H      0.735810000000     0.689400000000     0.991980000000     0.0468461  
H394     H      0.757810000000     0.728970000000     0.935050000000     0.0562201  
H395     H      0.584250000000     0.666860000000     0.991720000000     0.0240169  
H396     H      0.858660000000     0.800500000000     0.924280000000     0.0912592  
H397     H      0.815120000000     0.764760000000     0.896960000000     0.0707356  
H398     H      0.836720000000     0.819040000000     0.885800000000     0.088948   
H399     H      0.376230000000     0.288940000000     0.954700000000     0.0280055  
H400     H      0.133410000000     0.165830000000     0.022880000000     0.0230874  
H401     H      0.223750000000     0.265210000000     0.950550000000     0.0482239  
H402     H      0.196530000000     0.230500000000     0.004700000000     0.0498405  
H403     H      0.321150000000     0.226420000000     0.983580000000     0.0474861  
H404     H      0.261240000000     0.164270000000     0.981060000000     0.0592219  
H405     H      0.280680000000     0.328660000000     0.924010000000     0.0232801  
H406     H      0.194440000000     0.076330000000     0.981790000000     0.0887803  
H407     H      0.237270000000     0.097830000000     0.015360000000     0.0703182  
H408     H      0.180780000000     0.067310000000     0.027320000000     0.0732294  
H409     H      0.841720000000     0.964650000000     0.074510000000     0.0218904  
H410     H      0.685790000000     0.023020000000     0.956790000000     0.0249351  
H411     H      0.830800000000     0.082870000000     0.011810000000     0.0465344  
H412     H      0.761110000000     0.038710000000     0.973110000000     0.0488035  
H413     H      0.770360000000     0.960980000000     0.065070000000     0.050589   
H414     H      0.725820000000     0.990100000000     0.078830000000     0.0579471  
H415     H      0.902720000000     0.085330000000     0.021740000000     0.0192939  
H416     H      0.610510000000     0.935580000000     0.058650000000     0.0821661  
H417     H      0.653520000000     0.950380000000     0.092780000000     0.0685997  
H418     H      0.628500000000     0.982160000000     0.079980000000     0.0880196  
H419     H      0.045800000000     0.865250000000     0.926270000000     0.0233778  
H420     H      0.263290000000     0.924360000000     0.972730000000     0.0266379  
H421     H      0.172890000000     0.968200000000     0.859200000000     0.0488843  
H422     H      0.186960000000     0.905440000000     0.959000000000     0.0498252  
H423     H      0.111710000000     0.857220000000     0.928300000000     0.0474557  
H424     H      0.209830000000     0.929740000000     0.849190000000     0.0571703  
H425     H      0.107860000000     0.975520000000     0.858820000000     0.0207866  
H426     H      0.308900000000     0.936230000000     0.849890000000     0.09142    
H427     H      0.278160000000     0.959980000000     0.828230000000     0.0691892  
H428     H      0.324000000000     0.988450000000     0.857590000000     0.07772    
H429     H      0.931660000000     0.798610000000     0.931750000000     0.0237762  
H430     H      0.952610000000     0.625210000000     0.041080000000     0.0215043  
H431     H      0.904670000000     0.717960000000     0.046670000000     0.0466055  
H432     H      0.942830000000     0.683130000000     0.043130000000     0.0501789  
H433     H      0.915310000000     0.728600000000     0.934380000000     0.0473772  
H434     H      0.868580000000     0.658710000000     0.943700000000     0.05593    
H435     H      0.923920000000     0.789880000000     0.043250000000     0.0194295  
H436     H      0.857920000000     0.558510000000     0.942080000000     0.0796902  
H437     H      0.845050000000     0.596680000000     0.919720000000     0.0672537  
H438     H      0.896300000000     0.599090000000     0.912820000000     0.0860855  
H439     H      0.042220000000     0.362840000000     0.925870000000     0.0271098  
H440     H      0.071260000000     0.174180000000     0.009450000000     0.0258322  
H441     H      0.035140000000     0.264850000000     0.026520000000     0.0492012  
H442     H      0.084460000000     0.242120000000     0.014570000000     0.051346   
H443     H      0.062460000000     0.311790000000     0.918310000000     0.047529   
H444     H      0.019860000000     0.241970000000     0.912630000000     0.058473   
H445     H      0.018130000000     0.318770000000     0.033900000000     0.024665   
H446     H      0.971380000000     0.143900000000     0.899130000000     0.075129   
H447     H      0.002440000000     0.192640000000     0.875160000000     0.0679488  
H448     H      0.025400000000     0.158770000000     0.884740000000     0.0825465  
N1       N      0.467730000000     0.458740000000     0.810490000000    -0.209272   
N2       N      0.455620000000     0.468070000000     0.624870000000    -0.193932   
N3       N      0.502270000000     0.503500000000     0.125250000000    -0.208887   
N4       N      0.514810000000     0.491880000000     0.310070000000    -0.194443   
N5       N      0.487600000000     0.646370000000     0.451840000000    -0.213706   
N6       N      0.506290000000     0.834770000000     0.460870000000    -0.195895   
N7       N      0.432490000000     0.298310000000     0.471210000000    -0.208864   
N8       N      0.420720000000     0.113030000000     0.465470000000    -0.195213   
N9       N      0.527040000000     0.000980000000     0.620940000000    -0.20184    
N10      N      0.516700000000     0.994640000000     0.806310000000    -0.188724   
N11      N      0.415780000000     0.955600000000     0.303150000000    -0.203673   
N12      N      0.434880000000     0.965050000000     0.118990000000    -0.189652   
N13      N      0.502750000000     0.655840000000     0.940850000000    -0.202283   
N14      N      0.519900000000     0.851790000000     0.913470000000    -0.19078    
N15      N      0.466030000000     0.304120000000     0.997260000000    -0.203232   
N16      N      0.442570000000     0.103420000000     0.013810000000    -0.191286   
N17      N      0.832020000000     0.309390000000     0.477030000000    -0.209557   
N18      N      0.630470000000     0.126280000000     0.497240000000    -0.194085   
N19      N      0.137900000000     0.635280000000     0.518320000000    -0.211159   
N20      N      0.311080000000     0.809700000000     0.433580000000    -0.193361   
N21      N      0.843860000000     0.521160000000     0.515290000000    -0.209846   
N22      N      0.635520000000     0.481620000000     0.431820000000    -0.19376    
N23      N      0.107150000000     0.456550000000     0.439910000000    -0.210213   
N24      N      0.330720000000     0.505770000000     0.478180000000    -0.193887   
N25      N      0.988410000000     0.502130000000     0.824730000000    -0.212466   
N26      N      0.002920000000     0.516580000000     0.641600000000    -0.19575    
N27      N      0.976370000000     0.463040000000     0.146760000000    -0.207654   
N28      N      0.955630000000     0.453590000000     0.329540000000    -0.193664   
N29      N      0.857060000000     0.305240000000     0.931990000000    -0.205089   
N30      N      0.654790000000     0.122850000000     0.916420000000    -0.187925   
N31      N      0.103870000000     0.640140000000     0.051110000000    -0.20517    
N32      N      0.297020000000     0.830410000000     0.015690000000    -0.188073   
N33      N      0.816460000000     0.469570000000     0.030180000000    -0.20665    
N34      N      0.622950000000     0.459580000000     0.935570000000    -0.195455   
N35      N      0.335350000000     0.510590000000     0.997210000000    -0.206981   
N36      N      0.129960000000     0.495550000000     0.929670000000    -0.194558   
N37      N      0.611890000000     0.637470000000     0.536590000000    -0.201489   
N38      N      0.799690000000     0.839080000000     0.531250000000    -0.188604   
N39      N      0.156760000000     0.126410000000     0.427550000000    -0.203186   
N40      N      0.343630000000     0.322170000000     0.394790000000    -0.188346   
N41      N      0.586870000000     0.961730000000     0.377270000000    -0.209799   
N42      N      0.796640000000     0.981380000000     0.426580000000    -0.191304   
N43      N      0.157830000000     0.004150000000     0.523300000000    -0.205994   
N44      N      0.354160000000     0.001720000000     0.557150000000    -0.19223    
N45      N      0.013850000000     0.856930000000     0.421020000000    -0.205778   
N46      N      0.000870000000     0.661210000000     0.449310000000    -0.184763   
N47      N      0.949270000000     0.305990000000     0.522300000000    -0.203317   
N48      N      0.935950000000     0.111310000000     0.529350000000    -0.18938    
N49      N      0.922120000000     0.954170000000     0.629480000000    -0.204805   
N50      N      0.927850000000     0.962260000000     0.814100000000    -0.18931    
N51      N      0.021790000000     0.007550000000     0.318740000000    -0.205355   
N52      N      0.021960000000     0.999570000000     0.134460000000    -0.189335   
N53      N      0.799820000000     0.831470000000     0.940950000000    -0.206502   
N54      N      0.626680000000     0.640320000000     0.005360000000    -0.194702   
N55      N      0.159790000000     0.128280000000     0.010510000000    -0.207834   
N56      N      0.332970000000     0.314010000000     0.938210000000    -0.193557   
N57      N      0.661050000000     0.996600000000     0.007950000000    -0.203932   
N58      N      0.876970000000     0.024550000000     0.047580000000    -0.197258   
N59      N      0.282670000000     0.940140000000     0.919200000000    -0.203523   
N60      N      0.073310000000     0.921810000000     0.893630000000    -0.193341   
N61      N      0.921050000000     0.610200000000     0.989440000000    -0.208999   
N62      N      0.929730000000     0.799610000000     0.987410000000    -0.195626   
N63      N      0.036450000000     0.167130000000     0.958550000000    -0.208463   
N64      N      0.027060000000     0.343430000000     0.980150000000    -0.194355   
O1       O      0.116570000000     0.067630000000     0.987110000000    -0.387912   
O2       O      0.085610000000     0.090630000000     0.021130000000    -0.365708   
O3       O      0.948910000000     0.001550000000     0.861120000000    -0.369811   
O4       O      0.935920000000     0.935440000000     0.869850000000    -0.378353   
O5       O      0.006050000000     0.105460000000     0.933410000000    -0.383263   
O6       O      0.024430000000     0.108350000000     0.991660000000    -0.37621    
O7       O      0.067690000000     0.973910000000     0.911020000000    -0.388336   
O8       O      0.007630000000     0.910850000000     0.912890000000    -0.358343   
O9       O      0.126290000000     0.052340000000     0.924640000000    -0.331427   
O10      O      0.109270000000     0.977430000000     0.989480000000    -0.530332   
O11      O      0.021630000000     0.081330000000     0.871520000000    -0.522478   
O12      O      0.915430000000     0.051280000000     0.894310000000    -0.355892   
O13      O      0.033450000000     0.049700000000     0.958730000000    -0.495738   
O14      O      0.006250000000     0.992700000000     0.916680000000    -0.635131   
O15      O      0.954420000000     0.859240000000     0.013800000000    -0.381335   
O16      O      0.940090000000     0.857870000000     0.954690000000    -0.377749   
O17      O      0.909430000000     0.985400000000     0.044100000000    -0.35391    
O18      O      0.951000000000     0.052320000000     0.037540000000    -0.364935   
O19      O      0.841280000000     0.894530000000     0.961640000000    -0.38385    
O20      O      0.873210000000     0.872570000000     0.927840000000    -0.372291   
O21      O      0.002270000000     0.960840000000     0.087160000000    -0.364316   
O22      O      0.019340000000     0.028080000000     0.078280000000    -0.371485   
O23      O      0.934650000000     0.880180000000     0.074760000000    -0.519456   
O24      O      0.043580000000     0.916720000000     0.053650000000    -0.356441   
O25      O      0.823730000000     0.918660000000     0.017270000000    -0.341769   
O26      O      0.849470000000     0.991330000000     0.962930000000    -0.539503   
O27      O      0.923030000000     0.914320000000     0.988890000000    -0.628777   
O28      O      0.950660000000     0.972000000000     0.030420000000    -0.464004   
O29      O      0.010390000000     0.937600000000     0.975220000000    -0.494878   
O30      O      0.946520000000     0.027020000000     0.972340000000    -0.62448    
O31      O      0.039330000000     0.997220000000     0.017210000000    -0.63219    
O32      O      0.917570000000     0.966810000000     0.930420000000    -0.496517   
O33      O      0.966940000000     0.875420000000     0.438800000000    -0.386167   
O34      O      0.038230000000     0.924540000000     0.431300000000    -0.372798   
O35      O      0.863780000000     0.990780000000     0.414520000000    -0.377472   
O36      O      0.845010000000     0.979050000000     0.471240000000    -0.370083   
O37      O      0.977770000000     0.002950000000     0.360740000000    -0.385863   
O38      O      0.037960000000     0.995180000000     0.377550000000    -0.371971   
O39      O      0.865650000000     0.865410000000     0.507070000000    -0.370009   
O40      O      0.842090000000     0.909550000000     0.518140000000    -0.357809   
O41      O      0.870470000000     0.857560000000     0.429690000000    -0.355463   
O42      O      0.929430000000     0.839790000000     0.502800000000    -0.522812   
O43      O      0.884410000000     0.946100000000     0.368230000000    -0.527865   
O44      O      0.937150000000     0.053550000000     0.374710000000    -0.345305   
O45      O      0.964260000000     0.948490000000     0.423710000000    -0.500767   
O46      O      0.897820000000     0.942980000000     0.455880000000    -0.62921    
O47      O      0.966780000000     0.960370000000     0.587440000000    -0.383887   
O48      O      0.907300000000     0.969330000000     0.570990000000    -0.370306   
O49      O      0.091720000000     0.100530000000     0.454330000000    -0.380102   
O50      O      0.103970000000     0.056870000000     0.427540000000    -0.370088   
O51      O      0.980890000000     0.092350000000     0.508760000000    -0.382265   
O52      O      0.910150000000     0.043320000000     0.518540000000    -0.359751   
O53      O      0.088230000000     0.988680000000     0.534760000000    -0.374932   
O54      O      0.105350000000     0.996040000000     0.478150000000    -0.37213    
O55      O      0.057410000000     0.014760000000     0.586030000000    -0.521069   
O56      O      0.011370000000     0.911470000000     0.568890000000    -0.358712   
O57      O      0.071770000000     0.114890000000     0.519480000000    -0.343229   
O58      O      0.018170000000     0.122410000000     0.437760000000    -0.530056   
O59      O      0.983180000000     0.018700000000     0.525120000000    -0.63076    
O60      O      0.048910000000     0.023480000000     0.492940000000    -0.497737   
O61      O      0.937580000000     0.933240000000     0.521440000000    -0.498163   
O62      O      0.009680000000     0.034240000000     0.427180000000    -0.629459   
O63      O      0.004610000000     0.938260000000     0.489470000000    -0.627656   
O64      O      0.943410000000     0.028980000000     0.459620000000    -0.493799   
O65      O      0.009470000000     0.379580000000     0.013380000000    -0.370271   
O66      O      0.002010000000     0.385790000000     0.953710000000    -0.374254   
O67      O      0.853680000000     0.433440000000     0.033820000000    -0.385009   
O68      O      0.892350000000     0.501500000000     0.037510000000    -0.348914   
O69      O      0.872800000000     0.356010000000     0.966600000000    -0.374874   
O70      O      0.915700000000     0.371020000000     0.920970000000    -0.368937   
O71      O      0.986430000000     0.442700000000     0.096350000000    -0.38792    
O72      O      0.973670000000     0.496970000000     0.093560000000    -0.387274   
O73      O      0.946440000000     0.360260000000     0.067300000000    -0.349798   
O74      O      0.058690000000     0.434260000000     0.070690000000    -0.525085   
O75      O      0.820790000000     0.359520000000     0.009740000000    -0.515917   
O76      O      0.828570000000     0.423160000000     0.945050000000    -0.363849   
O77      O      0.941900000000     0.403110000000     0.989280000000    -0.494662   
O78      O      0.934710000000     0.443580000000     0.036670000000    -0.624777   
O79      O      0.089590000000     0.586590000000     0.021230000000    -0.388801   
O80      O      0.032620000000     0.584590000000     0.046460000000    -0.364939   
O81      O      0.969190000000     0.516520000000     0.873850000000    -0.381604   
O82      O      0.982600000000     0.462690000000     0.876370000000    -0.386869   
O83      O      0.933730000000     0.569300000000     0.957610000000    -0.3755     
O84      O      0.949610000000     0.570220000000     0.016340000000    -0.37468    
O85      O      0.081820000000     0.520870000000     0.927240000000    -0.366064   
O86      O      0.054470000000     0.454270000000     0.922920000000    -0.357859   
O87      O      0.120130000000     0.598100000000     0.957900000000    -0.52066    
O88      O      0.125340000000     0.522930000000     0.009280000000    -0.367505   
O89      O      0.994690000000     0.593740000000     0.902540000000    -0.347089   
O90      O      0.887340000000     0.512910000000     0.898240000000    -0.530928   
O91      O      0.007470000000     0.550440000000     0.979640000000    -0.629861   
O92      O      0.013010000000     0.509800000000     0.933400000000    -0.478715   
O93      O      0.026940000000     0.500800000000     0.034670000000    -0.497549   
O94      O      0.920970000000     0.451890000000     0.934000000000    -0.627165   
O95      O      0.032040000000     0.460460000000     0.987040000000    -0.626522   
O96      O      0.916700000000     0.492130000000     0.983150000000    -0.489219   
O97      O      0.968040000000     0.370090000000     0.539260000000    -0.377871   
O98      O      0.958000000000     0.359360000000     0.481520000000    -0.364949   
O99      O      0.877820000000     0.483590000000     0.535500000000    -0.391038   
O100     O      0.920440000000     0.549590000000     0.521610000000    -0.360209   
O101     O      0.860160000000     0.374720000000     0.490820000000    -0.377975   
O102     O      0.891700000000     0.362330000000     0.448780000000    -0.368835   
O103     O      0.999490000000     0.481020000000     0.596740000000    -0.392466   
O104     O      0.995660000000     0.540190000000     0.584350000000    -0.386462   
O105     O      0.943990000000     0.395170000000     0.595330000000    -0.352793   
O106     O      0.053350000000     0.441620000000     0.574870000000    -0.537725   
O107     O      0.815420000000     0.407120000000     0.515730000000    -0.518411   
O108     O      0.838330000000     0.455730000000     0.446080000000    -0.35841    
O109     O      0.931260000000     0.414680000000     0.503470000000    -0.488867   
O110     O      0.942850000000     0.473750000000     0.538870000000    -0.613195   
O111     O      0.096010000000     0.565150000000     0.526990000000    -0.362687   
O112     O      0.063160000000     0.602860000000     0.526750000000    -0.368285   
O113     O      0.959610000000     0.490700000000     0.373420000000    -0.379193   
O114     O      0.959270000000     0.429630000000     0.387110000000    -0.377038   
O115     O      0.983770000000     0.597900000000     0.432400000000    -0.37125    
O116     O      0.996500000000     0.609360000000     0.490300000000    -0.365183   
O117     O      0.061360000000     0.484650000000     0.428770000000    -0.358992   
O118     O      0.030300000000     0.418280000000     0.438940000000    -0.365064   
O119     O      0.123230000000     0.580380000000     0.444310000000    -0.536533   
O120     O      0.131610000000     0.512020000000     0.499740000000    -0.357128   
O121     O      0.015140000000     0.575420000000     0.377800000000    -0.333686   
O122     O      0.903700000000     0.527830000000     0.395020000000    -0.524602   
O123     O      0.025890000000     0.555810000000     0.468090000000    -0.621382   
O124     O      0.012050000000     0.494350000000     0.433740000000    -0.458715   
O125     O      0.033040000000     0.511960000000     0.530310000000    -0.468942   
O126     O      0.920950000000     0.456250000000     0.439310000000    -0.618625   
O127     O      0.023700000000     0.451050000000     0.496060000000    -0.619126   
O128     O      0.932540000000     0.517820000000     0.475080000000    -0.493788   
O129     O      0.352800000000     0.957510000000     0.905560000000    -0.379012   
O130     O      0.339430000000     0.957190000000     0.961900000000    -0.366117   
O131     O      0.472650000000     0.868830000000     0.932350000000    -0.380062   
O132     O      0.542430000000     0.919700000000     0.921820000000    -0.360977   
O133     O      0.362720000000     0.857800000000     0.989750000000    -0.379857   
O134     O      0.345080000000     0.900920000000     0.011880000000    -0.359311   
O135     O      0.473270000000     0.988410000000     0.849390000000    -0.376373   
O136     O      0.538360000000     0.989110000000     0.865180000000    -0.36778    
O137     O      0.385190000000     0.932850000000     0.853860000000    -0.343163   
O138     O      0.425630000000     0.036210000000     0.865460000000    -0.529766   
O139     O      0.382480000000     0.837220000000     0.929940000000    -0.518098   
O140     O      0.445010000000     0.844350000000     0.008660000000    -0.35477    
O141     O      0.399350000000     0.931670000000     0.947490000000    -0.497606   
O142     O      0.465360000000     0.938750000000     0.914740000000    -0.6277     
O143     O      0.586010000000     0.096450000000     0.936590000000    -0.37907    
O144     O      0.605810000000     0.052700000000     0.918310000000    -0.358498   
O145     O      0.478440000000     0.970130000000     0.076350000000    -0.376069   
O146     O      0.412260000000     0.967110000000     0.060250000000    -0.367587   
O147     O      0.592800000000     0.984760000000     0.020980000000    -0.379211   
O148     O      0.607750000000     0.990140000000     0.964090000000    -0.364378   
O149     O      0.482610000000     0.070850000000     0.010370000000    -0.356626   
O150     O      0.409260000000     0.034360000000     0.003550000000    -0.367316   
O151     O      0.561080000000     0.128580000000     0.981040000000    -0.517734   
O152     O      0.489230000000     0.102310000000     0.918720000000    -0.366343   
O153     O      0.569790000000     0.025300000000     0.066630000000    -0.341569   
O154     O      0.519150000000     0.917680000000     0.063730000000    -0.533091   
O155     O      0.549690000000     0.022590000000     0.977960000000    -0.627767   
O156     O      0.483660000000     0.014770000000     0.010520000000    -0.473332   
O157     O      0.505830000000     0.024560000000     0.912450000000    -0.49421    
O158     O      0.443480000000     0.928930000000     0.013090000000    -0.629884   
O159     O      0.437260000000     0.017660000000     0.945550000000    -0.621846   
O160     O      0.510510000000     0.935850000000     0.979620000000    -0.491592   
O161     O      0.425000000000     0.066910000000     0.434820000000    -0.379224   
O162     O      0.460120000000     0.081310000000     0.488720000000    -0.3753     
O163     O      0.337540000000     0.875210000000     0.445460000000    -0.386698   
O164     O      0.383590000000     0.857580000000     0.424600000000    -0.367041   
O165     O      0.366210000000     0.960580000000     0.527000000000    -0.386759   
O166     O      0.422700000000     0.024180000000     0.537140000000    -0.363008   
O167     O      0.425860000000     0.990010000000     0.352070000000    -0.376684   
O168     O      0.429050000000     0.930560000000     0.358310000000    -0.378482   
O169     O      0.371720000000     0.015230000000     0.381490000000    -0.344857   
O170     O      0.482980000000     0.081190000000     0.372070000000    -0.534804   
O171     O      0.310100000000     0.923790000000     0.473330000000    -0.517109   
O172     O      0.354100000000     0.870320000000     0.526480000000    -0.347381   
O173     O      0.418560000000     0.000720000000     0.467460000000    -0.496516   
O174     O      0.401900000000     0.947780000000     0.423760000000    -0.636398   
O175     O      0.552090000000     0.997970000000     0.385440000000    -0.374866   
O176     O      0.514070000000     0.929560000000     0.390660000000    -0.363911   
O177     O      0.515370000000     0.966060000000     0.571880000000    -0.377928   
O178     O      0.507940000000     0.023260000000     0.566500000000    -0.372313   
O179     O      0.502740000000     0.880700000000     0.492370000000    -0.383114   
O180     O      0.473830000000     0.872010000000     0.436170000000    -0.372663   
O181     O      0.587890000000     0.057220000000     0.493830000000    -0.357112   
O182     O      0.555700000000     0.091850000000     0.506720000000    -0.369717   
O183     O      0.624060000000     0.027590000000     0.440320000000    -0.530846   
O184     O      0.592770000000     0.094000000000     0.410470000000    -0.366808   
O185     O      0.566320000000     0.940110000000     0.538410000000    -0.342643   
O186     O      0.454120000000     0.876240000000     0.555440000000    -0.528865   
O187     O      0.518330000000     0.954110000000     0.456710000000    -0.625084   
O188     O      0.532900000000     0.006180000000     0.499300000000    -0.471017   
O189     O      0.489410000000     0.995180000000     0.402720000000    -0.490027   
O190     O      0.445700000000     0.958490000000     0.521930000000    -0.634276   
O191     O      0.505180000000     0.051430000000     0.445960000000    -0.62318    
O192     O      0.430830000000     0.903560000000     0.478530000000    -0.492026   
O193     O      0.473200000000     0.363160000000     0.016670000000    -0.378967   
O194     O      0.473910000000     0.359120000000     0.958470000000    -0.358443   
O195     O      0.362560000000     0.466070000000     0.005360000000    -0.38836    
O196     O      0.410960000000     0.533380000000     0.003150000000    -0.367499   
O197     O      0.357140000000     0.382610000000     0.928050000000    -0.387855   
O198     O      0.406220000000     0.359900000000     0.930160000000    -0.357807   
O199     O      0.494020000000     0.467090000000     0.079560000000    -0.380393   
O200     O      0.487350000000     0.524780000000     0.068800000000    -0.390764   
O201     O      0.423520000000     0.379850000000     0.067070000000    -0.356175   
O202     O      0.536730000000     0.420590000000     0.066490000000    -0.527165   
O203     O      0.331870000000     0.378840000000     0.997800000000    -0.525237   
O204     O      0.333150000000     0.449790000000     0.930120000000    -0.346024   
O205     O      0.432990000000     0.406230000000     0.979460000000    -0.50085    
O206     O      0.435730000000     0.460720000000     0.017480000000    -0.62414    
O207     O      0.600990000000     0.571120000000     0.012510000000    -0.378113   
O208     O      0.553200000000     0.595080000000     0.012370000000    -0.365545   
O209     O      0.475130000000     0.494450000000     0.856430000000    -0.383556   
O210     O      0.472770000000     0.432390000000     0.867370000000    -0.38744    
O211     O      0.490290000000     0.595100000000     0.920710000000    -0.374246   
O212     O      0.490510000000     0.598870000000     0.978970000000    -0.366105   
O213     O      0.581630000000     0.491850000000     0.920440000000    -0.362456   
O214     O      0.547470000000     0.424410000000     0.923540000000    -0.365323   
O215     O      0.636930000000     0.577010000000     0.947200000000    -0.529935   
O216     O      0.623430000000     0.498310000000     0.005210000000    -0.367084   
O217     O      0.532690000000     0.579040000000     0.867940000000    -0.336109   
O218     O      0.418700000000     0.531200000000     0.874150000000    -0.531453   
O219     O      0.528240000000     0.550160000000     0.957290000000    -0.631511   
O220     O      0.524520000000     0.495800000000     0.920640000000    -0.467016   
O221     O      0.527540000000     0.501480000000     0.018860000000    -0.486269   
O222     O      0.432380000000     0.455110000000     0.917610000000    -0.622683   
O223     O      0.527130000000     0.446310000000     0.982300000000    -0.627309   
O224     O      0.433260000000     0.509900000000     0.954720000000    -0.499564   
O225     O      0.442170000000     0.353300000000     0.499080000000    -0.3797     
O226     O      0.473260000000     0.364090000000     0.447600000000    -0.377677   
O227     O      0.386230000000     0.504070000000     0.453960000000    -0.335914   
O228     O      0.395930000000     0.515200000000     0.509960000000    -0.361571   
O229     O      0.362770000000     0.384100000000     0.413690000000    -0.377903   
O230     O      0.417360000000     0.370750000000     0.404040000000    -0.353298   
O231     O      0.457000000000     0.440360000000     0.576220000000    -0.383973   
O232     O      0.464150000000     0.504360000000     0.570810000000    -0.382691   
O233     O      0.408770000000     0.364010000000     0.558000000000    -0.338963   
O234     O      0.518640000000     0.404690000000     0.556510000000    -0.529681   
O235     O      0.328540000000     0.399430000000     0.487210000000    -0.535699   
O236     O      0.325400000000     0.434570000000     0.410840000000    -0.341809   
O237     O      0.429810000000     0.407370000000     0.465510000000    -0.498189   
O238     O      0.421040000000     0.451820000000     0.507660000000    -0.623446   
O239     O      0.593190000000     0.577340000000     0.513360000000    -0.381898   
O240     O      0.538060000000     0.585500000000     0.530090000000    -0.362953   
O241     O      0.509580000000     0.518310000000     0.358000000000    -0.385084   
O242     O      0.497430000000     0.452570000000     0.362790000000    -0.381752   
O243     O      0.490620000000     0.595990000000     0.426600000000    -0.378897   
O244     O      0.473350000000     0.586720000000     0.483510000000    -0.385678   
O245     O      0.586360000000     0.505570000000     0.427210000000    -0.339354   
O246     O      0.559820000000     0.439490000000     0.422890000000    -0.361306   
O247     O      0.646300000000     0.563630000000     0.481380000000    -0.52163    
O248     O      0.604340000000     0.483730000000     0.523270000000    -0.364073   
O249     O      0.553750000000     0.597290000000     0.384230000000    -0.340377   
O250     O      0.438620000000     0.542280000000     0.367090000000    -0.530714   
O251     O      0.526690000000     0.549540000000     0.466420000000    -0.62876    
O252     O      0.534300000000     0.503260000000     0.425770000000    -0.459107   
O253     O      0.514190000000     0.490700000000     0.524920000000    -0.50083    
O254     O      0.442130000000     0.464350000000     0.407150000000    -0.628044   
O255     O      0.521810000000     0.443150000000     0.482560000000    -0.621776   
O256     O      0.437750000000     0.512160000000     0.450360000000    -0.460268   
Zr1      Zr     0.064350000000     0.005930000000     0.960270000000     1.3903     
Zr2      Zr     0.973790000000     0.035120000000     0.916440000000     1.36924    
Zr3      Zr     0.982720000000     0.929080000000     0.031130000000     1.36833    
Zr4      Zr     0.892080000000     0.958310000000     0.987130000000     1.36313    
Zr5      Zr     0.006890000000     0.040620000000     0.015460000000     1.37607    
Zr6      Zr     0.951080000000     0.924220000000     0.932420000000     1.36522    
Zr7      Zr     0.929230000000     0.899420000000     0.470970000000     1.37982    
Zr8      Zr     0.934280000000     0.993570000000     0.409860000000     1.37952    
Zr9      Zr     0.012650000000     0.973350000000     0.539090000000     1.38611    
Zr10     Zr     0.018860000000     0.067830000000     0.477940000000     1.3915     
Zr11     Zr     0.040130000000     0.988980000000     0.442130000000     1.3536     
Zr12     Zr     0.907030000000     0.978380000000     0.506510000000     1.35506    
Zr13     Zr     0.992770000000     0.427620000000     0.037980000000     1.37288    
Zr14     Zr     0.884620000000     0.419710000000     0.986920000000     1.36715    
Zr15     Zr     0.064250000000     0.532720000000     0.982310000000     1.37827    
Zr16     Zr     0.954600000000     0.525050000000     0.931840000000     1.37982    
Zr17     Zr     0.980290000000     0.436690000000     0.937340000000     1.3616     
Zr18     Zr     0.968790000000     0.517340000000     0.031610000000     1.36102    
Zr19     Zr     0.987690000000     0.441540000000     0.547530000000     1.37274    
Zr20     Zr     0.887490000000     0.447340000000     0.492500000000     1.37603    
Zr21     Zr     0.068980000000     0.522090000000     0.478240000000     1.3582     
Zr22     Zr     0.968690000000     0.527760000000     0.423730000000     1.374      
Zr23     Zr     0.965470000000     0.422820000000     0.450890000000     1.362      
Zr24     Zr     0.988780000000     0.545440000000     0.520570000000     1.3616     
Zr25     Zr     0.430250000000     0.979230000000     0.898610000000     1.37706    
Zr26     Zr     0.434820000000     0.892170000000     0.964600000000     1.38475    
Zr27     Zr     0.513010000000     0.061540000000     0.960500000000     1.36181    
Zr28     Zr     0.518940000000     0.974560000000     0.026800000000     1.37981    
Zr29     Zr     0.407450000000     0.969300000000     0.995900000000     1.3548     
Zr30     Zr     0.541660000000     0.983950000000     0.929970000000     1.35151    
Zr31     Zr     0.440090000000     0.019560000000     0.408790000000     1.37849    
Zr32     Zr     0.382290000000     0.929500000000     0.483260000000     1.38846    
Zr33     Zr     0.553740000000     0.025330000000     0.440130000000     1.36014    
Zr34     Zr     0.496010000000     0.934900000000     0.515490000000     1.3807     
Zr35     Zr     0.482940000000     0.030550000000     0.505600000000     1.3735     
Zr36     Zr     0.452390000000     0.923310000000     0.419470000000     1.37809    
Zr37     Zr     0.481330000000     0.429490000000     0.029140000000     1.38475    
Zr38     Zr     0.388340000000     0.437930000000     0.966280000000     1.38679    
Zr39     Zr     0.572750000000     0.518370000000     0.971380000000     1.37125    
Zr40     Zr     0.479210000000     0.527340000000     0.907930000000     1.37929    
Zr41     Zr     0.477790000000     0.422840000000     0.931200000000     1.36295    
Zr42     Zr     0.482120000000     0.533370000000     0.005090000000     1.36049    
Zr43     Zr     0.465040000000     0.419110000000     0.522020000000     1.3792     
Zr44     Zr     0.388480000000     0.441450000000     0.449420000000     1.35924    
Zr45     Zr     0.568520000000     0.515520000000     0.483110000000     1.35275    
Zr46     Zr     0.491620000000     0.536080000000     0.409650000000     1.3933     
Zr47     Zr     0.485430000000     0.430910000000     0.424750000000     1.3633     
Zr48     Zr     0.471260000000     0.524450000000     0.508280000000     1.35944    


