data_structure

_audit_creation_method RASPA-1.0
_audit_creation_date 2023-6-4
_audit_author_name 'Poobodin Mano'

_cell_length_a    42.1244
_cell_length_b    46.0853
_cell_length_c    46.3603
_cell_angle_alpha 82.7758
_cell_angle_beta  96.3133
_cell_angle_gamma 119.44
_cell_volume      77635.3

_symmetry_cell_setting          triclinic
_symmetry_space_group_name_Hall 'P 1'
_symmetry_space_group_name_H-M  'P 1'
_symmetry_Int_Tables_number     1

_symmetry_equiv_pos_as_xyz 'x,y,z'

loop_
_atom_site_label
_atom_site_type_symbol
_atom_site_fract_x
_atom_site_fract_y
_atom_site_fract_z
_atom_site_charge
C1       C      0.105510000000     0.065860000000     0.991200000000     0.407394   
C2       C      0.929210000000     0.955410000000     0.883780000000     0.399311   
C3       C      0.015220000000     0.088470000000     0.972030000000     0.406602   
C4       C      0.022130000000     0.927860000000     0.917040000000     0.395918   
C5       C      0.951050000000     0.856030000000     0.991700000000     0.407997   
C6       C      0.951540000000     0.011880000000     0.052600000000     0.378907   
C7       C      0.860510000000     0.883990000000     0.968290000000     0.404113   
C8       C      0.032830000000     0.988060000000     0.080820000000     0.400829   
C9       C      0.017890000000     0.905070000000     0.450630000000     0.397837   
C10      C      0.868440000000     0.964370000000     0.455610000000     0.407548   
C11      C      0.012850000000     0.977400000000     0.383770000000     0.40632    
C12      C      0.881880000000     0.895660000000     0.525850000000     0.391986   
C13      C      0.966540000000     0.982830000000     0.581980000000     0.39599    
C14      C      0.098820000000     0.071270000000     0.437260000000     0.404771   
C15      C      0.949390000000     0.059720000000     0.499530000000     0.411068   
C16      C      0.116240000000     0.011700000000     0.507280000000     0.407256   
C17      C      0.030990000000     0.394600000000     0.987770000000     0.419555   
C18      C      0.907610000000     0.466830000000     0.053670000000     0.399138   
C19      C      0.913500000000     0.365250000000     0.958960000000     0.400675   
C20      C      0.033220000000     0.492380000000     0.090240000000     0.3971     
C21      C      0.071220000000     0.589360000000     0.016340000000     0.390678   
C22      C      0.956400000000     0.463970000000     0.888110000000     0.40346    
C23      C      0.949330000000     0.554180000000     0.994310000000     0.401523   
C24      C      0.067790000000     0.493920000000     0.915320000000     0.387574   
C25      C      0.973420000000     0.369830000000     0.508530000000     0.393601   
C26      C      0.894920000000     0.504220000000     0.507300000000     0.400302   
C27      C      0.905980000000     0.381460000000     0.444320000000     0.414678   
C28      C      0.978900000000     0.492310000000     0.587000000000     0.415452   
C29      C      0.074460000000     0.580300000000     0.535610000000     0.397783   
C30      C      0.018370000000     0.477780000000     0.391800000000     0.415935   
C31      C      0.006930000000     0.594140000000     0.467030000000     0.402095   
C32      C      0.084910000000     0.466980000000     0.464930000000     0.400627   
C33      C      0.365090000000     0.959750000000     0.960840000000     0.404709   
C34      C      0.514300000000     0.899170000000     0.953420000000     0.396847   
C35      C      0.376830000000     0.894230000000     0.027630000000     0.408638   
C36      C      0.512270000000     0.984260000000     0.885430000000     0.395859   
C37      C      0.599540000000     0.066790000000     0.943950000000     0.391963   
C38      C      0.465480000000     0.980420000000     0.085060000000     0.397796   
C39      C      0.605190000000     0.986270000000     0.012200000000     0.404595   
C40      C      0.460760000000     0.061580000000     0.016060000000     0.394937   
C41      C      0.522040000000     0.097030000000     0.476840000000     0.398043   
C42      C      0.366710000000     0.890080000000     0.467780000000     0.412926   
C43      C      0.444360000000     0.023520000000     0.548310000000     0.396794   
C44      C      0.439930000000     0.965850000000     0.386130000000     0.410261   
C45      C      0.526070000000     0.945480000000     0.415030000000     0.378358   
C46      C      0.538980000000     0.996310000000     0.584410000000     0.403613   
C47      C      0.460550000000     0.865460000000     0.493540000000     0.412083   
C48      C      0.609620000000     0.070450000000     0.503190000000     0.398376   
C49      C      0.468040000000     0.366570000000     0.006920000000     0.397816   
C50      C      0.402950000000     0.519500000000     0.973940000000     0.414268   
C51      C      0.407240000000     0.381310000000     0.934550000000     0.401967   
C52      C      0.452200000000     0.485590000000     0.075400000000     0.407496   
C53      C      0.566670000000     0.575390000000     0.035450000000     0.402317   
C54      C      0.527060000000     0.474240000000     0.889890000000     0.400792   
C55      C      0.509370000000     0.592610000000     0.956980000000     0.407419   
C56      C      0.585650000000     0.462710000000     0.970560000000     0.399166   
C57      C      0.523680000000     0.395430000000     0.478690000000     0.414117   
C58      C      0.404970000000     0.471500000000     0.548420000000     0.40102    
C59      C      0.408960000000     0.373260000000     0.449860000000     0.402538   
C60      C      0.525520000000     0.488380000000     0.587290000000     0.409196   
C61      C      0.577280000000     0.586280000000     0.523520000000     0.411125   
C62      C      0.466860000000     0.480380000000     0.380450000000     0.400018   
C63      C      0.455720000000     0.564160000000     0.490640000000     0.400575   
C64      C      0.572300000000     0.494930000000     0.417900000000     0.392632   
C65      C      0.559890000000     0.474960000000     0.661590000000    -0.117025   
C66      C      0.553540000000     0.501730000000     0.844870000000     0.0753864  
C67      C      0.522920000000     0.442500000000     0.851230000000     0.0729842  
C68      C      0.557850000000     0.500990000000     0.815640000000    -0.0910459  
C69      C      0.509150000000     0.452380000000     0.755710000000    -0.035175   
C70      C      0.507730000000     0.455500000000     0.725270000000    -0.0316683  
C71      C      0.542470000000     0.469720000000     0.771650000000    -0.0046396  
C72      C      0.525930000000     0.440860000000     0.821750000000    -0.0915115  
C73      C      0.539710000000     0.475490000000     0.710250000000    -0.0100573  
C74      C      0.514350000000     0.491540000000     0.663640000000    -0.0997005  
C75      C      0.573260000000     0.491700000000     0.726190000000    -0.0310256  
C76      C      0.512530000000     0.495970000000     0.633300000000     0.0782601  
C77      C      0.557550000000     0.479470000000     0.631030000000     0.167925   
C78      C      0.574580000000     0.489130000000     0.756640000000    -0.0346876  
C79      C      0.542930000000     0.470370000000     0.803550000000     0.0510441  
C80      C      0.537770000000     0.480440000000     0.678050000000     0.0651217  
C81      C      0.430410000000     0.461060000000     0.152000000000    -0.118035   
C82      C      0.459380000000     0.508120000000     0.335200000000     0.0712148  
C83      C      0.463820000000     0.458820000000     0.335430000000     0.0742279  
C84      C      0.457390000000     0.511370000000     0.304740000000    -0.0900864  
C85      C      0.436410000000     0.504330000000     0.240110000000    -0.0342445  
C86      C      0.434280000000     0.506050000000     0.209600000000    -0.0313036  
C87      C      0.457180000000     0.491000000000     0.256610000000    -0.00341311 
C88      C      0.461250000000     0.460990000000     0.305030000000    -0.0890736  
C89      C      0.452410000000     0.494050000000     0.195090000000    -0.00949571 
C90      C      0.460360000000     0.520960000000     0.143940000000    -0.0965561  
C91      C      0.473660000000     0.481380000000     0.211340000000    -0.0307173  
C92      C      0.459070000000     0.518080000000     0.114050000000     0.0773284  
C93      C      0.428170000000     0.458740000000     0.121950000000     0.165206   
C94      C      0.476360000000     0.480200000000     0.241690000000    -0.033826   
C95      C      0.458540000000     0.487770000000     0.289140000000     0.0500749  
C96      C      0.447400000000     0.492220000000     0.163210000000     0.0648398  
C97      C      0.466890000000     0.788950000000     0.514370000000    -0.118021   
C98      C      0.440360000000     0.593810000000     0.519850000000     0.0725743  
C99      C      0.438070000000     0.603900000000     0.468470000000     0.0714885  
C100     C      0.430470000000     0.617970000000     0.522750000000    -0.0933168  
C101     C      0.405990000000     0.679210000000     0.478280000000    -0.0350695  
C102     C      0.408350000000     0.710410000000     0.478860000000    -0.031376   
C103     C      0.422330000000     0.666930000000     0.501050000000    -0.00457244 
C104     C      0.429760000000     0.629300000000     0.470640000000    -0.091207   
C105     C      0.426050000000     0.729660000000     0.502700000000    -0.00982247 
C106     C      0.411160000000     0.775860000000     0.485520000000    -0.100565   
C107     C      0.439000000000     0.715830000000     0.526720000000    -0.0319608  
C108     C      0.421280000000     0.809710000000     0.482500000000     0.0802409  
C109     C      0.476290000000     0.822750000000     0.511340000000     0.165178   
C110     C      0.437850000000     0.685270000000     0.525690000000    -0.0345257  
C111     C      0.426430000000     0.637110000000     0.498090000000     0.0499031  
C112     C      0.434160000000     0.765050000000     0.501450000000     0.0647929  
C113     C      0.533450000000     0.328590000000     0.451400000000    -0.117195   
C114     C      0.556010000000     0.149900000000     0.496350000000     0.0732368  
C115     C      0.522910000000     0.145480000000     0.450790000000     0.0724749  
C116     C      0.566450000000     0.183650000000     0.495510000000    -0.0932062  
C117     C      0.555530000000     0.242580000000     0.499430000000    -0.034719   
C118     C      0.556350000000     0.273070000000     0.499950000000    -0.0309895  
C119     C      0.560080000000     0.232800000000     0.473350000000    -0.00464168 
C120     C      0.532650000000     0.179260000000     0.449370000000    -0.0920087  
C121     C      0.561690000000     0.294410000000     0.474390000000    -0.00995804 
C122     C      0.567010000000     0.342990000000     0.497440000000    -0.100515   
C123     C      0.568400000000     0.285560000000     0.448680000000    -0.030758   
C124     C      0.555820000000     0.366670000000     0.498480000000     0.0833636  
C125     C      0.521970000000     0.352030000000     0.453110000000     0.179351   
C126     C      0.567520000000     0.254950000000     0.448150000000    -0.034024   
C127     C      0.553950000000     0.198490000000     0.472260000000     0.0512995  
C128     C      0.555390000000     0.323330000000     0.473900000000     0.0697164  
C129     C      0.562690000000     0.027850000000     0.657390000000    -0.116169   
C130     C      0.552180000000     0.991490000000     0.848920000000     0.0710887  
C131     C      0.492860000000     0.983910000000     0.835150000000     0.0698835  
C132     C      0.559350000000     0.994010000000     0.819650000000    -0.0914244  
C133     C      0.511560000000     0.968380000000     0.748880000000    -0.0355721  
C134     C      0.516200000000     0.970090000000     0.719270000000    -0.0316547  
C135     C      0.538560000000     0.992250000000     0.766610000000    -0.00484838 
C136     C      0.498970000000     0.985890000000     0.805850000000    -0.0913474  
C137     C      0.547870000000     0.995850000000     0.706590000000    -0.0101833  
C138     C      0.542270000000     0.968940000000     0.661480000000    -0.10083    
C139     C      0.575100000000     0.019670000000     0.724310000000    -0.0315536  
C140     C      0.541240000000     0.969880000000     0.631290000000     0.0767208  
C141     C      0.561940000000     0.028330000000     0.626890000000     0.163898   
C142     C      0.570610000000     0.017730000000     0.754130000000    -0.0350785  
C143     C      0.532430000000     0.990910000000     0.797770000000     0.0493706  
C144     C      0.551580000000     0.997770000000     0.674820000000     0.0638195  
C145     C      0.426800000000     0.989780000000     0.308900000000    -0.117625   
C146     C      0.425090000000     0.971490000000     0.121720000000     0.0733219  
C147     C      0.486720000000     0.985730000000     0.134930000000     0.0726935  
C148     C      0.418020000000     0.968900000000     0.151010000000    -0.0913046  
C149     C      0.411750000000     0.943630000000     0.217010000000    -0.0347377  
C150     C      0.407570000000     0.940720000000     0.246970000000    -0.0311577  
C151     C      0.439660000000     0.972950000000     0.203730000000    -0.00464855 
C152     C      0.480790000000     0.984080000000     0.164230000000    -0.0922622  
C153     C      0.430740000000     0.967360000000     0.263940000000    -0.00979792 
C154     C      0.426460000000     0.937150000000     0.313470000000    -0.0989106  
C155     C      0.458020000000     0.996930000000     0.250440000000    -0.0313774  
C156     C      0.427970000000     0.937050000000     0.343740000000     0.0799588  
C157     C      0.427000000000     0.988570000000     0.339290000000     0.166069   
C158     C      0.462630000000     0.999590000000     0.220690000000    -0.0348201  
C159     C      0.446110000000     0.975330000000     0.172560000000     0.0510446  
C160     C      0.427460000000     0.964440000000     0.295810000000     0.0654438  
C161     C      0.531630000000     0.677560000000     0.922430000000    -0.112995   
C162     C      0.488700000000     0.844430000000     0.938840000000     0.0761489  
C163     C      0.553040000000     0.877860000000     0.942210000000     0.073082   
C164     C      0.491600000000     0.816640000000     0.934320000000    -0.091994   
C165     C      0.502050000000     0.758380000000     0.954300000000    -0.0336887  
C166     C      0.501830000000     0.727950000000     0.956130000000    -0.030713   
C167     C      0.527710000000     0.786590000000     0.938040000000    -0.00341036 
C168     C      0.557000000000     0.849850000000     0.938680000000    -0.0884217  
C169     C      0.527780000000     0.724570000000     0.942330000000    -0.00768118 
C170     C      0.518480000000     0.672420000000     0.972360000000    -0.0954763  
C171     C      0.553790000000     0.752710000000     0.926100000000    -0.0316114  
C172     C      0.512460000000     0.639800000000     0.974960000000     0.0810797  
C173     C      0.525640000000     0.644320000000     0.925610000000     0.168788   
C174     C      0.553870000000     0.783540000000     0.924100000000    -0.0342591  
C175     C      0.525840000000     0.818360000000     0.936040000000     0.0505578  
C176     C      0.527080000000     0.691580000000     0.945740000000     0.0639882  
C177     C      0.444980000000     0.283560000000     0.045490000000    -0.114661   
C178     C      0.483270000000     0.117920000000     0.026000000000     0.0733365  
C179     C      0.419770000000     0.080300000000     0.027300000000     0.0696224  
C180     C      0.477900000000     0.144480000000     0.030430000000    -0.0934671  
C181     C      0.458180000000     0.192530000000     0.053360000000    -0.0351191  
C182     C      0.458880000000     0.223410000000     0.050920000000    -0.0321041  
C183     C      0.437340000000     0.168840000000     0.033130000000    -0.00493191 
C184     C      0.413270000000     0.106780000000     0.030890000000    -0.0912881  
C185     C      0.439180000000     0.231520000000     0.027900000000    -0.00900231 
C186     C      0.453070000000     0.283320000000     0.995160000000    -0.0984761  
C187     C      0.416910000000     0.207180000000     0.008490000000    -0.0338576  
C188     C      0.461750000000     0.316880000000     0.990910000000     0.0761443  
C189     C      0.453790000000     0.317420000000     0.040730000000     0.163668   
C190     C      0.415780000000     0.176030000000     0.011220000000    -0.0369475  
C191     C      0.442620000000     0.139380000000     0.032160000000     0.0491711  
C192     C      0.444670000000     0.266210000000     0.022680000000     0.0608449  
C193     C      0.817710000000     0.306640000000     0.444690000000    -0.119522   
C194     C      0.672620000000     0.096800000000     0.494400000000     0.0750528  
C195     C      0.649280000000     0.126910000000     0.514350000000     0.074895   
C196     C      0.706010000000     0.125660000000     0.490490000000    -0.091942   
C197     C      0.759830000000     0.190980000000     0.461480000000    -0.0349892  
C198     C      0.788780000000     0.221380000000     0.451300000000    -0.0319806  
C199     C      0.743530000000     0.188190000000     0.487460000000    -0.00460815 
C200     C      0.682160000000     0.156620000000     0.509940000000    -0.0897807  
C201     C      0.801590000000     0.249710000000     0.466600000000    -0.0112913  
C202     C      0.865150000000     0.291310000000     0.452820000000    -0.0996478  
C203     C      0.786190000000     0.247030000000     0.492810000000    -0.0318974  
C204     C      0.890820000000     0.324570000000     0.445350000000     0.0801865  
C205     C      0.843810000000     0.339550000000     0.436560000000     0.165727   
C206     C      0.757680000000     0.216530000000     0.503300000000    -0.0355014  
C207     C      0.710610000000     0.156460000000     0.496760000000     0.049962   
C208     C      0.828600000000     0.282800000000     0.454200000000     0.0650065  
C209     C      0.270420000000     0.833890000000     0.480490000000    -0.116492   
C210     C      0.136640000000     0.620620000000     0.542840000000     0.0737743  
C211     C      0.091470000000     0.637700000000     0.537430000000     0.0727915  
C212     C      0.163860000000     0.653370000000     0.536990000000    -0.0934678  
C213     C      0.197830000000     0.711430000000     0.490740000000    -0.0341624  
C214     C      0.225140000000     0.741380000000     0.478340000000    -0.0307104  
C215     C      0.181530000000     0.710930000000     0.515770000000    -0.00414144 
C216     C      0.118230000000     0.671030000000     0.531480000000    -0.0900944  
C217     C      0.237190000000     0.771510000000     0.490960000000    -0.00917318 
C218     C      0.298220000000     0.802580000000     0.468410000000    -0.0984305  
C219     C      0.220020000000     0.771010000000     0.515660000000    -0.0311709  
C220     C      0.329530000000     0.832560000000     0.461270000000     0.079847   
C221     C      0.302200000000     0.863680000000     0.473240000000     0.168381   
C222     C      0.192190000000     0.740990000000     0.527800000000    -0.0350543  
C223     C      0.154430000000     0.678540000000     0.529390000000     0.0513152  
C224     C      0.268770000000     0.802980000000     0.479480000000     0.06496    
C225     C      0.652220000000     0.483670000000     0.434000000000    -0.118549   
C226     C      0.871900000000     0.542010000000     0.509660000000     0.0722359  
C227     C      0.831700000000     0.483680000000     0.509580000000     0.0743046  
C228     C      0.842160000000     0.548170000000     0.504330000000    -0.0912654  
C229     C      0.777800000000     0.547690000000     0.464500000000    -0.0338407  
C230     C      0.746260000000     0.545670000000     0.449200000000    -0.0307325  
C231     C      0.775040000000     0.526060000000     0.489560000000    -0.00391076 
C232     C      0.801670000000     0.488780000000     0.505120000000    -0.0931293  
C233     C      0.711630000000     0.521780000000     0.458630000000    -0.00901734 
C234     C      0.670220000000     0.542040000000     0.432160000000    -0.0991949  
C235     C      0.709040000000     0.502050000000     0.484830000000    -0.0292842  
C236     C      0.635290000000     0.534660000000     0.420560000000     0.0763583  
C237     C      0.617780000000     0.477140000000     0.421290000000     0.163345   
C238     C      0.740400000000     0.504350000000     0.500270000000    -0.0341563  
C239     C      0.806650000000     0.521290000000     0.500960000000     0.0510183  
C240     C      0.677900000000     0.516000000000     0.440980000000     0.0673296  
C241     C      0.180700000000     0.491920000000     0.483670000000    -0.121208   
C242     C      0.345750000000     0.441110000000     0.566210000000     0.0732247  
C243     C      0.374100000000     0.500090000000     0.558650000000     0.0723476  
C244     C      0.311540000000     0.438930000000     0.565610000000    -0.0932588  
C245     C      0.248850000000     0.438130000000     0.528770000000    -0.0345024  
C246     C      0.217550000000     0.437020000000     0.514210000000    -0.0320261  
C247     C      0.272260000000     0.464520000000     0.546090000000    -0.00478544 
C248     C      0.340050000000     0.498810000000     0.556870000000    -0.0910266  
C249     C      0.209010000000     0.462450000000     0.516280000000    -0.0103659  
C250     C      0.143590000000     0.433310000000     0.497360000000    -0.100613   
C251     C      0.231640000000     0.488350000000     0.534190000000    -0.0322318  
C252     C      0.113470000000     0.434630000000     0.482800000000     0.0746738  
C253     C      0.150240000000     0.492440000000     0.468540000000     0.160841   
C254     C      0.262890000000     0.489330000000     0.549020000000    -0.0349798  
C255     C      0.308060000000     0.467650000000     0.557910000000     0.0499478  
C256     C      0.177230000000     0.462540000000     0.499100000000     0.0626288  
C257     C      0.990040000000     0.480470000000     0.666240000000    -0.122861   
C258     C      0.937050000000     0.483660000000     0.843290000000     0.0723248  
C259     C      0.961930000000     0.447330000000     0.843200000000     0.074861   
C260     C      0.936910000000     0.488620000000     0.812970000000    -0.0926787  
C261     C      0.928580000000     0.480910000000     0.746370000000    -0.0357095  
C262     C      0.934080000000     0.487120000000     0.716510000000    -0.0311106  
C263     C      0.956930000000     0.482720000000     0.766380000000    -0.0040702  
C264     C      0.962510000000     0.452000000000     0.812980000000    -0.0919819  
C265     C      0.968080000000     0.495460000000     0.706460000000    -0.0106612  
C266     C      0.960230000000     0.513850000000     0.654040000000    -0.100855   
C267     C      0.996940000000     0.499310000000     0.726740000000    -0.0332615  
C268     C      0.964390000000     0.513540000000     0.624610000000     0.0795465  
C269     C      0.994480000000     0.480980000000     0.636780000000     0.167648   
C270     C      0.991350000000     0.492810000000     0.756370000000    -0.037116   
C271     C      0.951120000000     0.473740000000     0.797720000000     0.0509804  
C272     C      0.972740000000     0.496780000000     0.675110000000     0.0671415  
C273     C      0.035640000000     0.452790000000     0.324970000000    -0.117314   
C274     C      0.033100000000     0.513930000000     0.134200000000     0.0720797  
C275     C      0.051990000000     0.473020000000     0.135530000000     0.0697033  
C276     C      0.034680000000     0.511850000000     0.164470000000    -0.0932187  
C277     C      0.010010000000     0.481720000000     0.224190000000    -0.0324792  
C278     C      0.007130000000     0.478170000000     0.254140000000    -0.0292191  
C279     C      0.040130000000     0.483070000000     0.212510000000    -0.00570052 
C280     C      0.053630000000     0.470160000000     0.165910000000    -0.0920265  
C281     C      0.034180000000     0.475680000000     0.273090000000    -0.010623   
C282     C      0.029150000000     0.502040000000     0.314200000000    -0.101099   
C283     C      0.063430000000     0.475320000000     0.261600000000    -0.0305273  
C284     C      0.026070000000     0.502460000000     0.343530000000     0.0829713  
C285     C      0.032750000000     0.453820000000     0.354740000000     0.170718   
C286     C      0.066430000000     0.479050000000     0.231440000000    -0.0339863  
C287     C      0.043610000000     0.488840000000     0.180640000000     0.0509863  
C288     C      0.033060000000     0.476650000000     0.304570000000     0.068549   
C289     C      0.870240000000     0.284270000000     0.925340000000    -0.115206   
C290     C      0.638040000000     0.124880000000     0.932260000000     0.0701717  
C291     C      0.660730000000     0.087400000000     0.929780000000     0.0683919  
C292     C      0.672010000000     0.152160000000     0.926280000000    -0.0922579  
C293     C      0.742580000000     0.206530000000     0.903130000000    -0.0359721  
C294     C      0.774900000000     0.236840000000     0.905530000000    -0.0330882  
C295     C      0.738670000000     0.177220000000     0.919570000000    -0.00540287 
C296     C      0.695600000000     0.114470000000     0.924110000000    -0.0907485  
C297     C      0.804350000000     0.238470000000     0.923970000000    -0.0102531  
C298     C      0.825610000000     0.290090000000     0.948380000000    -0.0992276  
C299     C      0.801860000000     0.208800000000     0.938420000000    -0.0328789  
C300     C      0.852880000000     0.320720000000     0.957300000000     0.0733893  
C301     C      0.897570000000     0.315610000000     0.934450000000     0.161932   
C302     C      0.769260000000     0.178380000000     0.936250000000    -0.035538   
C303     C      0.701650000000     0.147430000000     0.922650000000     0.0478406  
C304     C      0.834010000000     0.271480000000     0.932290000000     0.0618432  
C305     C      0.304860000000     0.810410000000     0.051390000000    -0.115649   
C306     C      0.093000000000     0.633600000000     0.048110000000     0.0693246  
C307     C      0.118190000000     0.643960000000     0.002260000000     0.0681456  
C308     C      0.118060000000     0.666520000000     0.054710000000    -0.0915645  
C309     C      0.196100000000     0.727580000000     0.065650000000    -0.0346657  
C310     C      0.228200000000     0.758170000000     0.068380000000    -0.0325829  
C311     C      0.172260000000     0.722750000000     0.040840000000    -0.00591009 
C312     C      0.142690000000     0.676900000000     0.007800000000    -0.0947936  
C313     C      0.236850000000     0.784660000000     0.046500000000    -0.00930413 
C314     C      0.278970000000     0.846870000000     0.038710000000    -0.0973028  
C315     C      0.211490000000     0.780620000000     0.022870000000    -0.0325444  
C316     C      0.314210000000     0.873820000000     0.035050000000     0.078984   
C317     C      0.339890000000     0.837750000000     0.047560000000     0.164779   
C318     C      0.179660000000     0.749950000000     0.019990000000    -0.0357021  
C319     C      0.143340000000     0.688520000000     0.034370000000     0.0492885  
C320     C      0.273930000000     0.814550000000     0.046210000000     0.0632238  
C321     C      0.681280000000     0.486950000000     0.989220000000    -0.118182   
C322     C      0.847690000000     0.436520000000     0.070230000000     0.0743052  
C323     C      0.875770000000     0.495440000000     0.061650000000     0.0707832  
C324     C      0.813330000000     0.434170000000     0.068960000000    -0.0922125  
C325     C      0.749960000000     0.432920000000     0.032310000000    -0.0356544  
C326     C      0.718270000000     0.431620000000     0.018290000000    -0.032208   
C327     C      0.773660000000     0.459380000000     0.049470000000    -0.00468392 
C328     C      0.841590000000     0.493960000000     0.059410000000    -0.0909854  
C329     C      0.709630000000     0.456900000000     0.020810000000    -0.0101752  
C330     C      0.644040000000     0.428070000000     0.001710000000    -0.0999832  
C331     C      0.732520000000     0.482760000000     0.038710000000    -0.032202   
C332     C      0.613920000000     0.429810000000     0.987480000000     0.0772189  
C333     C      0.650890000000     0.487930000000     0.974520000000     0.161772   
C334     C      0.764160000000     0.483970000000     0.052920000000    -0.0354525  
C335     C      0.809700000000     0.462740000000     0.060830000000     0.0489824  
C336     C      0.677760000000     0.457210000000     0.003890000000     0.0619175  
C337     C      0.340500000000     0.543550000000     0.931350000000    -0.119172   
C338     C      0.128970000000     0.536970000000     0.908570000000     0.0732875  
C339     C      0.112980000000     0.480590000000     0.905080000000     0.0760708  
C340     C      0.165980000000     0.546070000000     0.911860000000    -0.0902782  
C341     C      0.244510000000     0.556050000000     0.912740000000    -0.0357514  
C342     C      0.279560000000     0.562060000000     0.922970000000    -0.0311112  
C343     C      0.213650000000     0.528550000000     0.924790000000    -0.00245579 
C344     C      0.149640000000     0.488610000000     0.908640000000    -0.0851871  
C345     C      0.284250000000     0.541060000000     0.945790000000    -0.0105334  
C346     C      0.333400000000     0.541990000000     0.982430000000    -0.0984669  
C347     C      0.253370000000     0.514480000000     0.958630000000    -0.0304672  
C348     C      0.364240000000     0.537800000000     0.988860000000     0.0789174  
C349     C      0.370940000000     0.538920000000     0.938320000000     0.167463   
C350     C      0.218420000000     0.508160000000     0.948120000000    -0.0355326  
C351     C      0.176290000000     0.521270000000     0.914010000000     0.0503437  
C352     C      0.320500000000     0.543530000000     0.953420000000     0.0645685  
C353     C      0.664790000000     0.662010000000     0.532970000000    -0.118694   
C354     C      0.820140000000     0.873530000000     0.539330000000     0.0707852  
C355     C      0.843560000000     0.837040000000     0.534710000000     0.0703644  
C356     C      0.785020000000     0.846040000000     0.543000000000    -0.0902771  
C357     C      0.721660000000     0.769690000000     0.564880000000    -0.0353725  
C358     C      0.690720000000     0.737750000000     0.564580000000    -0.0312014  
C359     C      0.742310000000     0.784170000000     0.540110000000    -0.00456485 
C360     C      0.809180000000     0.809340000000     0.538200000000    -0.0914313  
C361     C      0.680350000000     0.720090000000     0.539520000000    -0.0106848  
C362     C      0.617130000000     0.670870000000     0.546910000000    -0.0983249  
C363     C      0.699600000000     0.735830000000     0.514260000000    -0.0317511  
C364     C      0.592180000000     0.637010000000     0.543510000000     0.076624   
C365     C      0.639710000000     0.628240000000     0.530460000000     0.164845   
C366     C      0.730220000000     0.767450000000     0.514570000000    -0.0353973  
C367     C      0.779260000000     0.813640000000     0.541470000000     0.049582   
C368     C      0.653510000000     0.683880000000     0.540230000000     0.0638992  
C369     C      0.194740000000     0.121330000000     0.416030000000    -0.115368   
C370     C      0.360760000000     0.318690000000     0.461810000000     0.0768765  
C371     C      0.384390000000     0.331970000000     0.414980000000     0.0804747  
C372     C      0.335040000000     0.286660000000     0.454670000000    -0.0938977  
C373     C      0.298350000000     0.214970000000     0.435870000000    -0.0340039  
C374     C      0.265760000000     0.184840000000     0.433320000000    -0.03104    
C375     C      0.302870000000     0.244180000000     0.419020000000    -0.00472105 
C376     C      0.357990000000     0.300120000000     0.406760000000    -0.0894842  
C377     C      0.236810000000     0.183540000000     0.414290000000    -0.00895217 
C378     C      0.169900000000     0.157490000000     0.420080000000    -0.0987126  
C379     C      0.242200000000     0.212310000000     0.396190000000    -0.031583   
C380     C      0.136220000000     0.129470000000     0.425610000000     0.0789099  
C381     C      0.160080000000     0.093320000000     0.420480000000     0.167761   
C382     C      0.275080000000     0.242320000000     0.398370000000    -0.0345081  
C383     C      0.332990000000     0.277190000000     0.426820000000     0.0526087  
C384     C      0.199950000000     0.153700000000     0.416170000000     0.0652019  
C385     C      0.778660000000     0.939540000000     0.416300000000    -0.115378   
C386     C      0.555410000000     0.912120000000     0.417190000000     0.0689869  
C387     C      0.583780000000     0.967730000000     0.395470000000     0.0688587  
C388     C      0.588160000000     0.911100000000     0.417420000000    -0.0905692  
C389     C      0.685810000000     0.971670000000     0.423510000000    -0.0358673  
C390     C      0.720220000000     0.974380000000     0.429950000000    -0.0312904  
C391     C      0.656440000000     0.942250000000     0.413230000000    -0.00457036 
C392     C      0.616590000000     0.967440000000     0.394980000000    -0.094399   
C393     C      0.726280000000     0.947720000000     0.426380000000    -0.00924199 
C394     C      0.782370000000     0.964770000000     0.459670000000    -0.0987223  
C395     C      0.697060000000     0.918310000000     0.415890000000    -0.0311764  
C396     C      0.817000000000     0.968170000000     0.466550000000     0.0801534  
C397     C      0.813420000000     0.942750000000     0.423870000000     0.165342   
C398     C      0.662400000000     0.915530000000     0.409520000000    -0.0342202  
C399     C      0.619740000000     0.939690000000     0.407620000000     0.0463751  
C400     C      0.762900000000     0.950710000000     0.434140000000     0.064764   
C401     C      0.208490000000     0.051300000000     0.544030000000    -0.115738   
C402     C      0.430440000000     0.068130000000     0.544950000000     0.0715349  
C403     C      0.394220000000     0.017050000000     0.572230000000     0.0749737  
C404     C      0.402820000000     0.076900000000     0.544320000000    -0.09093    
C405     C      0.326210000000     0.064650000000     0.521570000000    -0.0337238  
C406     C      0.291220000000     0.060580000000     0.514170000000    -0.0315038  
C407     C      0.336420000000     0.058160000000     0.550540000000    -0.00439948 
C408     C      0.366690000000     0.025350000000     0.572740000000    -0.0913889  
C409     C      0.265750000000     0.050160000000     0.535620000000    -0.00818455 
C410     C      0.208590000000     0.024000000000     0.503280000000    -0.0944945  
C411     C      0.276810000000     0.045830000000     0.564850000000    -0.0317723  
C412     C      0.171910000000     0.014990000000     0.496720000000     0.0840666  
C413     C      0.171860000000     0.042780000000     0.536570000000     0.166422   
C414     C      0.311700000000     0.049680000000     0.572210000000    -0.0343968  
C415     C      0.369700000000     0.054500000000     0.557060000000     0.0498727  
C416     C      0.227200000000     0.041920000000     0.527440000000     0.0645655  
C417     C      0.032980000000     0.679850000000     0.433520000000    -0.114252   
C418     C      0.991990000000     0.851310000000     0.433590000000     0.0767063  
C419     C      0.055530000000     0.880590000000     0.445640000000     0.0769376  
C420     C      0.993550000000     0.822340000000     0.430960000000    -0.0941259  
C421     C      0.995550000000     0.760110000000     0.453720000000    -0.0374503  
C422     C      0.994000000000     0.728980000000     0.457250000000    -0.0345831  
C423     C      0.025640000000     0.788450000000     0.441420000000    -0.00197147 
C424     C      0.057920000000     0.851430000000     0.443990000000    -0.0890794  
C425     C      0.022730000000     0.725110000000     0.449060000000    -0.00625922 
C426     C      0.006050000000     0.670870000000     0.478980000000    -0.0969882  
C427     C      0.053040000000     0.753380000000     0.436840000000    -0.0317737  
C428     C      0.002460000000     0.638960000000     0.482850000000     0.07762    
C429     C      0.029950000000     0.647790000000     0.438220000000     0.161791   
C430     C      0.054530000000     0.784770000000     0.433120000000    -0.0342504  
C431     C      0.026200000000     0.821370000000     0.437960000000     0.05318    
C432     C      0.020750000000     0.691620000000     0.453850000000     0.0611716  
C433     C      0.944460000000     0.137020000000     0.487330000000    -0.118879   
C434     C      0.953490000000     0.317880000000     0.538200000000     0.0687364  
C435     C      0.975050000000     0.323980000000     0.491530000000     0.069784   
C436     C      0.947540000000     0.284870000000     0.542510000000    -0.0912114  
C437     C      0.919560000000     0.209120000000     0.532870000000    -0.0365839  
C438     C      0.914750000000     0.176860000000     0.531500000000    -0.0317335  
C439     C      0.952500000000     0.237540000000     0.524860000000    -0.00383793 
C440     C      0.969810000000     0.291520000000     0.495220000000    -0.0926008  
C441     C      0.942840000000     0.172790000000     0.522120000000    -0.0113022  
C442     C      0.925830000000     0.112100000000     0.535510000000    -0.0989666  
C443     C      0.976480000000     0.201230000000     0.516190000000    -0.030749   
C444     C      0.926590000000     0.083530000000     0.528830000000     0.0760415  
C445     C      0.944380000000     0.108120000000     0.481000000000     0.166396   
C446     C      0.981260000000     0.233160000000     0.517570000000    -0.0391112  
C447     C      0.956300000000     0.271600000000     0.520990000000     0.04772    
C448     C      0.936820000000     0.139860000000     0.515050000000     0.0639676  
C449     C      0.909990000000     0.926750000000     0.809730000000    -0.115389   
C450     C      0.924750000000     0.971450000000     0.618400000000     0.0703425  
C451     C      0.985870000000     0.984580000000     0.632380000000     0.0680197  
C452     C      0.916710000000     0.967230000000     0.647700000000    -0.0917187  
C453     C      0.961710000000     0.992350000000     0.719760000000    -0.0358778  
C454     C      0.955920000000     0.988640000000     0.749390000000    -0.0324609  
C455     C      0.936660000000     0.968460000000     0.701060000000    -0.0055581  
C456     C      0.978880000000     0.980970000000     0.661720000000    -0.0946379  
C457     C      0.925020000000     0.960840000000     0.761220000000    -0.00976741 
C458     C      0.926450000000     0.984730000000     0.807130000000    -0.100398   
C459     C      0.899800000000     0.936920000000     0.742560000000    -0.0319096  
C460     C      0.926180000000     0.982480000000     0.837340000000     0.0758443  
C461     C      0.909370000000     0.924920000000     0.840300000000     0.1638     
C462     C      0.905430000000     0.940830000000     0.712720000000    -0.034699   
C463     C      0.944000000000     0.972120000000     0.669760000000     0.0497407  
C464     C      0.919910000000     0.957150000000     0.793010000000     0.0629696  
C465     C      0.055750000000     0.980980000000     0.316650000000    -0.116356   
C466     C      0.051360000000     0.018890000000     0.123180000000     0.0748331  
C467     C      0.033740000000     0.961210000000     0.128080000000     0.0744562  
C468     C      0.054040000000     0.019430000000     0.153570000000    -0.0890643  
C469     C      0.070750000000     0.011410000000     0.220830000000    -0.0338512  
C470     C      0.067490000000     0.009290000000     0.250940000000    -0.0301592  
C471     C      0.042300000000     0.988290000000     0.203330000000    -0.00492204 
C472     C      0.035740000000     0.960810000000     0.158330000000    -0.0926058  
C473     C      0.035390000000     0.984520000000     0.263850000000    -0.0106612  
C474     C      0.999240000000     0.981520000000     0.304240000000    -0.10208    
C475     C      0.007030000000     0.961550000000     0.246280000000    -0.028743   
C476     C      0.993900000000     0.978890000000     0.333760000000     0.0762497  
C477     C      0.049150000000     0.977000000000     0.346460000000     0.169313   
C478     C      0.010540000000     0.963270000000     0.216440000000    -0.0324762  
C479     C      0.044990000000     0.989860000000     0.171430000000     0.0513726  
C480     C      0.030550000000     0.982980000000     0.295340000000     0.0685054  
C481     C      0.609150000000     0.665370000000     0.029340000000    -0.115042   
C482     C      0.802070000000     0.855080000000     0.987940000000     0.0758664  
C483     C      0.813140000000     0.833410000000     0.948850000000     0.0827589  
C484     C      0.768790000000     0.826370000000     0.992040000000    -0.0887841  
C485     C      0.724850000000     0.736800000000     0.979910000000    -0.0339456  
C486     C      0.698000000000     0.706400000000     0.992190000000    -0.0279112  
C487     C      0.725080000000     0.766820000000     0.983050000000    -0.00167845 
C488     C      0.779430000000     0.804120000000     0.952180000000    -0.0833579  
C489     C      0.671100000000     0.705080000000     0.008770000000    -0.00947407 
C490     C      0.654970000000     0.648250000000     0.033470000000    -0.0996781  
C491     C      0.670100000000     0.734860000000     0.010490000000    -0.0320111  
C492     C      0.628660000000     0.615970000000     0.042200000000     0.0761337  
C493     C      0.583760000000     0.632880000000     0.040180000000     0.16228    
C494     C      0.696320000000     0.765150000000     0.997420000000    -0.0330856  
C495     C      0.757410000000     0.799720000000     0.974860000000     0.0507907  
C496     C      0.644670000000     0.672670000000     0.023990000000     0.0627773  
C497     C      0.183960000000     0.149690000000     0.003250000000    -0.117131   
C498     C      0.389150000000     0.323230000000     0.937330000000     0.072401   
C499     C      0.345400000000     0.341350000000     0.924290000000     0.0715742  
C500     C      0.361320000000     0.290350000000     0.943080000000    -0.0904743  
C501     C      0.295330000000     0.220290000000     0.949090000000    -0.035093   
C502     C      0.266760000000     0.189490000000     0.959150000000    -0.032018   
C503     C      0.294740000000     0.250130000000     0.951430000000    -0.00431396 
C504     C      0.317020000000     0.308820000000     0.929070000000    -0.0929721  
C505     C      0.236700000000     0.187690000000     0.971570000000    -0.00927596 
C506     C      0.192750000000     0.128430000000     0.961940000000    -0.0993324  
C507     C      0.236660000000     0.217600000000     0.974640000000    -0.031233   
C508     C      0.160940000000     0.098640000000     0.967630000000     0.0749756  
C509     C      0.151950000000     0.119100000000     0.008820000000     0.162526   
C510     C      0.265360000000     0.248350000000     0.964890000000    -0.0337348  
C511     C      0.324690000000     0.283190000000     0.940530000000     0.0496938  
C512     C      0.204350000000     0.154790000000     0.979330000000     0.0645123  
C513     C      0.684410000000     0.985050000000     0.054060000000    -0.118076   
C514     C      0.920620000000     0.044110000000     0.045080000000     0.0663256  
C515     C      0.895090000000     0.992230000000     0.073510000000     0.0698034  
C516     C      0.887450000000     0.044580000000     0.043930000000    -0.0927237  
C517     C      0.814420000000     0.042620000000     0.046980000000    -0.0358956  
C518     C      0.779280000000     0.038860000000     0.040900000000    -0.0326355  
C519     C      0.819640000000     0.014400000000     0.052470000000    -0.00563867 
C520     C      0.862200000000     0.992510000000     0.073790000000    -0.0932699  
C521     C      0.748620000000     0.006870000000     0.040830000000    -0.0113135  
C522     C      0.701900000000     0.013000000000     0.006520000000    -0.104876   
C523     C      0.753550000000     0.978760000000     0.046660000000    -0.0320277  
C524     C      0.665890000000     0.006100000000     0.999550000000     0.080848   
C525     C      0.648370000000     0.978560000000     0.046690000000     0.166458   
C526     C      0.788540000000     0.982420000000     0.052000000000    -0.0364203  
C527     C      0.857040000000     0.017730000000     0.057330000000     0.0452561  
C528     C      0.711400000000     0.002400000000     0.033980000000     0.0656797  
C529     C      0.271680000000     0.921540000000     0.925860000000    -0.116449   
C530     C      0.072000000000     0.936540000000     0.891750000000     0.0733482  
C531     C      0.045070000000     0.889250000000     0.925680000000     0.0676556  
C532     C      0.103520000000     0.933790000000     0.892750000000    -0.0928138  
C533     C      0.172780000000     0.946260000000     0.927240000000    -0.0373685  
C534     C      0.208160000000     0.951720000000     0.934570000000    -0.0320759  
C535     C      0.144520000000     0.914490000000     0.920510000000    -0.00544078 
C536     C      0.076800000000     0.886040000000     0.927630000000    -0.0930377  
C537     C      0.216400000000     0.925620000000     0.935250000000    -0.0107986  
C538     C      0.274460000000     0.950540000000     0.966390000000    -0.100438   
C539     C      0.188180000000     0.893670000000     0.928670000000    -0.0322358  
C540     C      0.310880000000     0.958450000000     0.972300000000     0.0750621  
C541     C      0.308400000000     0.929570000000     0.932340000000     0.162665   
C542     C      0.152380000000     0.888050000000     0.921650000000    -0.036025   
C543     C      0.107340000000     0.910070000000     0.912560000000     0.0470182  
C544     C      0.254530000000     0.932300000000     0.942720000000     0.0623641  
C545     C      0.907890000000     0.767430000000     0.977750000000    -0.120727   
C546     C      0.948700000000     0.595300000000     0.020060000000     0.0708827  
C547     C      0.917920000000     0.583720000000     0.973490000000     0.0718607  
C548     C      0.941440000000     0.621470000000     0.021030000000    -0.0955094  
C549     C      0.915430000000     0.671070000000     0.022480000000    -0.0368309  
C550     C      0.918130000000     0.702470000000     0.022430000000    -0.0337356  
C551     C      0.919330000000     0.660200000000     0.996690000000    -0.00426984 
C552     C      0.909750000000     0.609570000000     0.973910000000    -0.0929797  
C553     C      0.923940000000     0.723180000000     0.996500000000    -0.0102439  
C554     C      0.955590000000     0.779440000000     0.015480000000    -0.104701   
C555     C      0.925820000000     0.711750000000     0.970450000000    -0.0319808  
C556     C      0.961460000000     0.812060000000     0.014150000000     0.0764387  
C557     C      0.913210000000     0.799870000000     0.977700000000     0.168741   
C558     C      0.923820000000     0.680630000000     0.970560000000    -0.0343531  
C559     C      0.922530000000     0.629470000000     0.997500000000     0.0514981  
C560     C      0.929220000000     0.757160000000     0.996610000000     0.0676084  
C561     C      0.054640000000     0.336510000000     0.961650000000    -0.117929   
C562     C      0.048240000000     0.142430000000     0.989650000000     0.0756519  
C563     C      0.006290000000     0.133130000000     0.948650000000     0.0743576  
C564     C      0.054240000000     0.174910000000     0.989740000000    -0.0905111  
C565     C      0.004680000000     0.219310000000     0.976270000000    -0.0322565  
C566     C      0.006450000000     0.249420000000     0.980600000000    -0.0271242  
C567     C      0.036640000000     0.218310000000     0.972240000000    -0.00529332 
C568     C      0.011070000000     0.165260000000     0.948530000000    -0.0928048  
C569     C      0.040100000000     0.278920000000     0.980430000000    -0.0115293  
C570     C      0.028860000000     0.315110000000     0.008550000000    -0.102513   
C571     C      0.072040000000     0.278060000000     0.976030000000    -0.0304368  
C572     C      0.028190000000     0.344720000000     0.010330000000     0.086313   
C573     C      0.053580000000     0.365970000000     0.963910000000     0.177254   
C574     C      0.070370000000     0.247780000000     0.972300000000    -0.0345452  
C575     C      0.034670000000     0.186090000000     0.969610000000     0.0512618  
C576     C      0.041460000000     0.310710000000     0.983740000000     0.0733988  
H1       H      0.995280000000     0.979940000000     0.910710000000     0.205805   
H2       H      0.951440000000     0.024870000000     0.991430000000     0.193386   
H3       H      0.923270000000     0.895340000000     0.007140000000     0.198274   
H4       H      0.065380000000     0.993930000000     0.019120000000     0.198563   
H5       H      0.921170000000     0.040460000000     0.940610000000     0.132386   
H6       H      0.884150000000     0.997630000000     0.984030000000     0.194127   
H7       H      0.885930000000     0.907410000000     0.054920000000     0.133172   
H8       H      0.948390000000     0.885590000000     0.071570000000     0.190262   
H9       H      0.051730000000     0.912890000000     0.018150000000     0.144299   
H10      H      0.110140000000     0.981090000000     0.988200000000     0.19982    
H11      H      0.078640000000     0.036620000000     0.907880000000     0.131296   
H12      H      0.020560000000     0.053540000000     0.891620000000     0.190527   
H13      H      0.986750000000     0.882770000000     0.077530000000     0.202423   
H14      H      0.088810000000     0.951140000000     0.965100000000     0.202392   
H15      H      0.985540000000     0.061460000000     0.885200000000     0.202425   
H16      H      0.858230000000     0.970950000000     0.010370000000     0.205742   
H17      H      0.903750000000     0.925030000000     0.472020000000     0.203516   
H18      H      0.019600000000     0.027480000000     0.418200000000     0.201368   
H19      H      0.001660000000     0.036960000000     0.530770000000     0.198823   
H20      H      0.040990000000     0.945060000000     0.508550000000     0.20113    
H21      H      0.936400000000     0.026000000000     0.402860000000     0.152137   
H22      H      0.000130000000     0.080520000000     0.413550000000     0.206688   
H23      H      0.079460000000     0.095560000000     0.506050000000     0.147684   
H24      H      0.071720000000     0.061920000000     0.558280000000     0.203117   
H25      H      0.023380000000     0.941520000000     0.579130000000     0.142724   
H26      H      0.004430000000     0.882700000000     0.529120000000     0.199217   
H27      H      0.909080000000     0.856690000000     0.468610000000     0.137063   
H28      H      0.902700000000     0.902130000000     0.413990000000     0.199002   
H29      H      0.081230000000     0.036880000000     0.582710000000     0.220381   
H30      H      0.979870000000     0.886880000000     0.552730000000     0.198905   
H31      H      0.898620000000     0.926320000000     0.385320000000     0.221909   
H32      H      0.029450000000     0.113290000000     0.432060000000     0.219414   
H33      H      0.972850000000     0.448390000000     0.059170000000     0.19494    
H34      H      0.919620000000     0.430300000000     0.946420000000     0.194375   
H35      H      0.013250000000     0.557050000000     0.974870000000     0.198306   
H36      H      0.067010000000     0.470270000000     0.976280000000     0.210431   
H37      H      0.859270000000     0.413430000000     0.982800000000     0.131238   
H38      H      0.874460000000     0.475540000000     0.953090000000     0.199342   
H39      H      0.995500000000     0.559740000000     0.913230000000     0.130081   
H40      H      0.083080000000     0.589290000000     0.926480000000     0.194271   
H41      H      0.129840000000     0.548130000000     0.998280000000     0.140386   
H42      H      0.108390000000     0.465370000000     0.025150000000     0.204668   
H43      H      0.998790000000     0.397620000000     0.071630000000     0.130362   
H44      H      0.926220000000     0.364010000000     0.045420000000     0.200198   
H45      H      0.121200000000     0.593720000000     0.945410000000     0.199618   
H46      H      0.111900000000     0.494000000000     0.046080000000     0.203031   
H47      H      0.910810000000     0.381420000000     0.065870000000     0.196883   
H48      H      0.879660000000     0.468310000000     0.919900000000     0.199463   
H49      H      0.923990000000     0.461510000000     0.533420000000     0.196628   
H50      H      0.951360000000     0.460800000000     0.420570000000     0.203762   
H51      H      0.050160000000     0.563420000000     0.482580000000     0.204732   
H52      H      0.035370000000     0.439140000000     0.514730000000     0.199739   
H53      H      0.864720000000     0.449180000000     0.425220000000     0.155986   
H54      H      0.950270000000     0.542540000000     0.402740000000     0.215238   
H55      H      0.078510000000     0.570200000000     0.424540000000     0.144813   
H56      H      0.137390000000     0.567750000000     0.488640000000     0.211297   
H57      H      0.103400000000     0.478320000000     0.534320000000     0.132386   
H58      H      0.033730000000     0.430980000000     0.577230000000     0.215794   
H59      H      0.899840000000     0.388990000000     0.542740000000     0.133267   
H60      H      0.850560000000     0.398510000000     0.502050000000     0.197178   
H61      H      0.146150000000     0.542300000000     0.513130000000     0.207927   
H62      H      0.994090000000     0.403100000000     0.591550000000     0.217575   
H63      H      0.834210000000     0.413450000000     0.472920000000     0.211215   
H64      H      0.958700000000     0.520140000000     0.382000000000     0.206309   
H65      H      0.473350000000     0.931590000000     0.932120000000     0.194125   
H66      H      0.454400000000     0.931500000000     0.046620000000     0.201654   
H67      H      0.576700000000     0.032630000000     0.999120000000     0.199973   
H68      H      0.445390000000     0.026480000000     0.963320000000     0.199549   
H69      H      0.463580000000     0.879890000000     0.046280000000     0.142398   
H70      H      0.522060000000     0.919330000000     0.070080000000     0.212042   
H71      H      0.563870000000     0.045020000000     0.063760000000     0.137291   
H72      H      0.583450000000     0.092720000000     0.019390000000     0.191928   
H73      H      0.517780000000     0.081550000000     0.922950000000     0.14214    
H74      H      0.423200000000     0.027320000000     0.906090000000     0.200349   
H75      H      0.408100000000     0.918000000000     0.903720000000     0.134222   
H76      H      0.392610000000     0.871410000000     0.948810000000     0.204635   
H77      H      0.570340000000     0.118210000000     0.999310000000     0.205907   
H78      H      0.460810000000     0.036980000000     0.889330000000     0.201503   
H79      H      0.403070000000     0.843960000000     0.968590000000     0.214818   
H80      H      0.538780000000     0.947690000000     0.094670000000     0.219926   
H81      H      0.410100000000     0.960290000000     0.444640000000     0.201738   
H82      H      0.471310000000     0.971950000000     0.555760000000     0.204128   
H83      H      0.522720000000     0.929100000000     0.477560000000     0.209863   
H84      H      0.550570000000     0.058250000000     0.462770000000     0.197134   
H85      H      0.397920000000     0.916770000000     0.557990000000     0.129436   
H86      H      0.440330000000     0.888700000000     0.566860000000     0.196231   
H87      H      0.573840000000     0.951550000000     0.545300000000     0.141349   
H88      H      0.611720000000     0.977110000000     0.460180000000     0.208604   
H89      H      0.593980000000     0.047310000000     0.417670000000     0.132791   
H90      H      0.532290000000     0.063870000000     0.396660000000     0.192879   
H91      H      0.403530000000     0.010600000000     0.431290000000     0.145799   
H92      H      0.386840000000     0.004330000000     0.486360000000     0.208774   
H93      H      0.591180000000     0.958390000000     0.491230000000     0.202377   
H94      H      0.497860000000     0.072460000000     0.388900000000     0.219851   
H95      H      0.352280000000     0.965960000000     0.494030000000     0.227999   
H96      H      0.479200000000     0.896970000000     0.586510000000     0.208232   
H97      H      0.413680000000     0.461680000000     0.017250000000     0.20053    
H98      H      0.461510000000     0.462110000000     0.912140000000     0.200717   
H99      H      0.551310000000     0.560460000000     0.981430000000     0.202144   
H100     H      0.525780000000     0.433210000000     0.016270000000     0.208804   
H101     H      0.363220000000     0.449160000000     0.912610000000     0.154877   
H102     H      0.497950000000     0.547720000000     0.872140000000     0.223915   
H103     H      0.592100000000     0.564340000000     0.933090000000     0.144064   
H104     H      0.636750000000     0.558990000000     0.002350000000     0.209066   
H105     H      0.574990000000     0.488910000000     0.066530000000     0.142785   
H106     H      0.512420000000     0.428410000000     0.080040000000     0.212433   
H107     H      0.387910000000     0.383070000000     0.023220000000     0.139574   
H108     H      0.346700000000     0.399580000000     0.979330000000     0.202796   
H109     H      0.638230000000     0.528740000000     0.025570000000     0.208735   
H110     H      0.470130000000     0.405440000000     0.091710000000     0.235193   
H111     H      0.346960000000     0.435110000000     0.984010000000     0.201115   
H112     H      0.457710000000     0.524720000000     0.887350000000     0.223633   
H113     H      0.462820000000     0.448730000000     0.551750000000     0.197921   
H114     H      0.420830000000     0.444090000000     0.435690000000     0.20115    
H115     H      0.522370000000     0.564460000000     0.475410000000     0.194243   
H116     H      0.561470000000     0.468010000000     0.475160000000     0.209555   
H117     H      0.345050000000     0.404960000000     0.489420000000     0.143655   
H118     H      0.382850000000     0.490970000000     0.440770000000     0.209136   
H119     H      0.513370000000     0.574500000000     0.413190000000     0.130012   
H120     H      0.627540000000     0.595740000000     0.451590000000     0.206317   
H121     H      0.638170000000     0.551380000000     0.485760000000     0.160564   
H122     H      0.602870000000     0.481460000000     0.535700000000     0.221678   
H123     H      0.472800000000     0.382410000000     0.546720000000     0.139182   
H124     H      0.408540000000     0.380960000000     0.549050000000     0.19182    
H125     H      0.591630000000     0.592880000000     0.430130000000     0.195272   
H126     H      0.586100000000     0.442740000000     0.552120000000     0.22002    
H127     H      0.368830000000     0.367530000000     0.529370000000     0.197998   
H128     H      0.394370000000     0.497020000000     0.406230000000     0.205275   
H129     H      0.508650000000     0.419120000000     0.864420000000     0.0263127  
H130     H      0.493050000000     0.503610000000     0.623140000000     0.0250704  
H131     H      0.600570000000     0.502800000000     0.768480000000     0.0433595  
H132     H      0.481580000000     0.442630000000     0.713420000000     0.0397677  
H133     H      0.497350000000     0.496680000000     0.675780000000     0.05792    
H134     H      0.483970000000     0.437590000000     0.766770000000     0.0407613  
H135     H      0.579280000000     0.467610000000     0.672490000000     0.0801249  
H136     H      0.514300000000     0.416700000000     0.813100000000     0.0553362  
H137     H      0.571200000000     0.524340000000     0.802240000000     0.0585802  
H138     H      0.598260000000     0.507330000000     0.715070000000     0.044021   
H139     H      0.564530000000     0.526110000000     0.853020000000     0.0332181  
H140     H      0.466150000000     0.437770000000     0.346610000000     0.0351373  
H141     H      0.471680000000     0.541050000000     0.100040000000     0.0391519  
H142     H      0.493470000000     0.470680000000     0.253400000000     0.0434862  
H143     H      0.417470000000     0.515650000000     0.197400000000     0.0422484  
H144     H      0.473130000000     0.545500000000     0.152020000000     0.0624705  
H145     H      0.420910000000     0.512560000000     0.250690000000     0.040213   
H146     H      0.418270000000     0.438550000000     0.166630000000     0.0818496  
H147     H      0.461190000000     0.441520000000     0.294140000000     0.0583022  
H148     H      0.455740000000     0.532730000000     0.293600000000     0.0546157  
H149     H      0.488020000000     0.472140000000     0.200480000000     0.0446709  
H150     H      0.458800000000     0.527250000000     0.346210000000     0.0280985  
H151     H      0.441130000000     0.599250000000     0.446860000000     0.0289173  
H152     H      0.402440000000     0.816920000000     0.470250000000     0.0240176  
H153     H      0.450980000000     0.677170000000     0.543760000000     0.0393563  
H154     H      0.397870000000     0.719990000000     0.459900000000     0.0390409  
H155     H      0.385360000000     0.758380000000     0.475430000000     0.0555469  
H156     H      0.392510000000     0.665400000000     0.459380000000     0.0399346  
H157     H      0.486470000000     0.781910000000     0.525310000000     0.0780168  
H158     H      0.427620000000     0.643510000000     0.450820000000     0.0545717  
H159     H      0.426830000000     0.621910000000     0.544400000000     0.0529272  
H160     H      0.451580000000     0.729240000000     0.545970000000     0.0412769  
H161     H      0.444440000000     0.580520000000     0.539640000000     0.0267216  
H162     H      0.505610000000     0.131210000000     0.433010000000     0.0283444  
H163     H      0.565850000000     0.381430000000     0.517160000000     0.0229328  
H164     H      0.571710000000     0.248240000000     0.427870000000     0.0420688  
H165     H      0.550490000000     0.278880000000     0.519980000000     0.0400588  
H166     H      0.584260000000     0.339790000000     0.515240000000     0.0576216  
H167     H      0.549230000000     0.225870000000     0.519130000000     0.0411508  
H168     H      0.522750000000     0.312700000000     0.433490000000     0.0817857  
H169     H      0.522190000000     0.189780000000     0.431080000000     0.0570021  
H170     H      0.583590000000     0.197860000000     0.513340000000     0.0558279  
H171     H      0.573060000000     0.301780000000     0.428750000000     0.046042   
H172     H      0.565940000000     0.139450000000     0.515110000000     0.0319916  
H173     H      0.466440000000     0.980000000000     0.840180000000     0.0302655  
H174     H      0.532150000000     0.946280000000     0.622250000000     0.0210792  
H175     H      0.591770000000     0.036560000000     0.767290000000     0.040527   
H176     H      0.494570000000     0.951560000000     0.706150000000     0.0389065  
H177     H      0.534670000000     0.945350000000     0.674290000000     0.0564456  
H178     H      0.486720000000     0.948310000000     0.757930000000     0.0406979  
H179     H      0.571580000000     0.050860000000     0.667380000000     0.0785661  
H180     H      0.477570000000     0.983740000000     0.789550000000     0.0556424  
H181     H      0.585550000000     0.997740000000     0.814240000000     0.0545407  
H182     H      0.599870000000     0.039680000000     0.715140000000     0.0416214  
H183     H      0.573670000000     0.993800000000     0.865180000000     0.0278229  
H184     H      0.514030000000     0.992340000000     0.129610000000     0.0260972  
H185     H      0.429440000000     0.916300000000     0.356510000000     0.0291109  
H186     H      0.484280000000     0.022460000000     0.210910000000     0.0416527  
H187     H      0.386250000000     0.917720000000     0.256870000000     0.0415768  
H188     H      0.426490000000     0.916830000000     0.304030000000     0.0586955  
H189     H      0.393860000000     0.922690000000     0.204360000000     0.0424792  
H190     H      0.425310000000     0.010130000000     0.295430000000     0.0806356  
H191     H      0.503150000000     0.989100000000     0.180360000000     0.056353   
H192     H      0.390860000000     0.962230000000     0.156730000000     0.0565342  
H193     H      0.476410000000     0.017740000000     0.263070000000     0.0428028  
H194     H      0.402580000000     0.966290000000     0.105680000000     0.0288291  
H195     H      0.577480000000     0.901410000000     0.945810000000     0.0286588  
H196     H      0.504970000000     0.626380000000     0.996160000000     0.0472472  
H197     H      0.574010000000     0.804750000000     0.911380000000     0.0408799  
H198     H      0.480900000000     0.706850000000     0.968370000000     0.0432489  
H199     H      0.515630000000     0.682340000000     0.991310000000     0.0662547  
H200     H      0.481940000000     0.759740000000     0.965930000000     0.0436557  
H201     H      0.537730000000     0.691570000000     0.901320000000     0.0791442  
H202     H      0.584080000000     0.852470000000     0.939730000000     0.0554336  
H203     H      0.466770000000     0.793370000000     0.930830000000     0.055502   
H204     H      0.574280000000     0.751020000000     0.915310000000     0.0428785  
H205     H      0.461370000000     0.841240000000     0.938550000000     0.0212251  
H206     H      0.396440000000     0.055550000000     0.025760000000     0.0244427  
H207     H      0.468350000000     0.328750000000     0.969080000000     0.0263924  
H208     H      0.399770000000     0.158370000000     0.995170000000     0.0404504  
H209     H      0.476490000000     0.241670000000     0.066090000000     0.0427856  
H210     H      0.454010000000     0.271110000000     0.977020000000     0.0546515  
H211     H      0.475150000000     0.187660000000     0.070390000000     0.0412272  
H212     H      0.439690000000     0.271180000000     0.067280000000     0.079387   
H213     H      0.385540000000     0.101900000000     0.032240000000     0.05408    
H214     H      0.501310000000     0.169280000000     0.031250000000     0.0538208  
H215     H      0.401260000000     0.212650000000     0.990650000000     0.0384579  
H216     H      0.511190000000     0.123510000000     0.024100000000     0.0220167  
H217     H      0.627330000000     0.128390000000     0.523130000000     0.0321881  
H218     H      0.919340000000     0.330900000000     0.447090000000     0.0311028  
H219     H      0.746450000000     0.215340000000     0.523590000000     0.040254   
H220     H      0.800080000000     0.223140000000     0.430850000000     0.0419722  
H221     H      0.874140000000     0.272980000000     0.459360000000     0.0590948  
H222     H      0.749360000000     0.170070000000     0.448240000000     0.0401493  
H223     H      0.789020000000     0.299610000000     0.443760000000     0.0803646  
H224     H      0.684270000000     0.179710000000     0.515300000000     0.0548914  
H225     H      0.727630000000     0.123860000000     0.481600000000     0.0542663  
H226     H      0.795880000000     0.268770000000     0.504910000000     0.0410236  
H227     H      0.669890000000     0.073780000000     0.488040000000     0.0268113  
H228     H      0.063250000000     0.632270000000     0.536300000000     0.0302132  
H229     H      0.352520000000     0.830970000000     0.454740000000     0.025741   
H230     H      0.179930000000     0.741080000000     0.547120000000     0.0416458  
H231     H      0.236950000000     0.740780000000     0.458980000000     0.0411107  
H232     H      0.298230000000     0.779330000000     0.466920000000     0.0555423  
H233     H      0.189520000000     0.688480000000     0.480850000000     0.0448349  
H234     H      0.246970000000     0.834920000000     0.486710000000     0.0796796  
H235     H      0.110210000000     0.690180000000     0.526170000000     0.0570272  
H236     H      0.191860000000     0.658620000000     0.536470000000     0.0558045  
H237     H      0.228850000000     0.793600000000     0.526270000000     0.0430835  
H238     H      0.144880000000     0.601500000000     0.546860000000     0.0270039  
H239     H      0.826540000000     0.458040000000     0.511170000000     0.0210856  
H240     H      0.629550000000     0.555320000000     0.415970000000     0.017285   
H241     H      0.737430000000     0.487760000000     0.519750000000     0.0416288  
H242     H      0.748860000000     0.561350000000     0.429160000000     0.0407176  
H243     H      0.690030000000     0.567600000000     0.436220000000     0.0566989  
H244     H      0.804080000000     0.564460000000     0.455590000000     0.0410113  
H245     H      0.658960000000     0.463610000000     0.438540000000     0.0796751  
H246     H      0.774820000000     0.467210000000     0.502760000000     0.0551756  
H247     H      0.847020000000     0.573700000000     0.501600000000     0.0546166  
H248     H      0.682600000000     0.484040000000     0.492910000000     0.0438904  
H249     H      0.899190000000     0.563290000000     0.510490000000     0.0256815  
H250     H      0.397900000000     0.524310000000     0.554760000000     0.02701    
H251     H      0.087360000000     0.411890000000     0.483850000000     0.0270058  
H252     H      0.279980000000     0.509810000000     0.562350000000     0.0392322  
H253     H      0.200860000000     0.416970000000     0.500330000000     0.0403708  
H254     H      0.140050000000     0.409850000000     0.508450000000     0.0563577  
H255     H      0.255480000000     0.418990000000     0.525210000000     0.0390372  
H256     H      0.207220000000     0.514170000000     0.482840000000     0.0781675  
H257     H      0.338950000000     0.521870000000     0.551650000000     0.0537707  
H258     H      0.287740000000     0.414480000000     0.568430000000     0.0525602  
H259     H      0.225320000000     0.508030000000     0.536520000000     0.0390296  
H260     H      0.347050000000     0.417980000000     0.569180000000     0.0188774  
H261     H      0.972210000000     0.431160000000     0.854210000000     0.0346764  
H262     H      0.953230000000     0.526070000000     0.608790000000     0.0241402  
H263     H      0.013880000000     0.495230000000     0.771510000000     0.0453734  
H264     H      0.911380000000     0.483900000000     0.701280000000     0.0394773  
H265     H      0.947100000000     0.527120000000     0.660230000000     0.0572081  
H266     H      0.901880000000     0.473400000000     0.753730000000     0.040436   
H267     H      0.000740000000     0.467740000000     0.682240000000     0.0827052  
H268     H      0.972940000000     0.439500000000     0.801670000000     0.0585219  
H269     H      0.927560000000     0.505360000000     0.801730000000     0.0552006  
H270     H      0.023660000000     0.506470000000     0.719620000000     0.0450255  
H271     H      0.927190000000     0.496750000000     0.854440000000     0.0260691  
H272     H      0.058600000000     0.457120000000     0.124950000000     0.030338   
H273     H      0.021900000000     0.522340000000     0.349410000000     0.0284981  
H274     H      0.089880000000     0.479920000000     0.222990000000     0.0411299  
H275     H      0.984060000000     0.478030000000     0.262580000000     0.0381733  
H276     H      0.027970000000     0.521430000000     0.298980000000     0.0605708  
H277     H      0.988720000000     0.483720000000     0.210150000000     0.0374573  
H278     H      0.040110000000     0.433620000000     0.317850000000     0.0811413  
H279     H      0.060950000000     0.452250000000     0.177660000000     0.0556338  
H280     H      0.027930000000     0.527580000000     0.175120000000     0.0549873  
H281     H      0.084680000000     0.473600000000     0.275920000000     0.0443768  
H282     H      0.024900000000     0.531330000000     0.122590000000     0.0265539  
H283     H      0.657350000000     0.062380000000     0.931410000000     0.0254422  
H284     H      0.844310000000     0.334110000000     0.969390000000     0.0284264  
H285     H      0.767180000000     0.156380000000     0.949320000000     0.0384246  
H286     H      0.776180000000     0.259420000000     0.894230000000     0.0401195  
H287     H      0.797850000000     0.280820000000     0.954310000000     0.0566055  
H288     H      0.719870000000     0.206460000000     0.889620000000     0.0391036  
H289     H      0.877390000000     0.269650000000     0.913500000000     0.0778928  
H290     H      0.717700000000     0.109630000000     0.921290000000     0.0523499  
H291     H      0.675250000000     0.177040000000     0.925750000000     0.0524839  
H292     H      0.824110000000     0.209570000000     0.953050000000     0.040625   
H293     H      0.616410000000     0.130290000000     0.935420000000     0.023891   
H294     H      0.119370000000     0.636340000000     0.981390000000     0.021766   
H295     H      0.316660000000     0.898110000000     0.027780000000     0.0286614  
H296     H      0.161670000000     0.746950000000     0.000680000000     0.0390373  
H297     H      0.247040000000     0.760650000000     0.087000000000     0.0420442  
H298     H      0.255740000000     0.851190000000     0.034850000000     0.0563497  
H299     H      0.191220000000     0.707030000000     0.081970000000     0.0408191  
H300     H      0.301850000000     0.785830000000     0.058040000000     0.0788278  
H301     H      0.161970000000     0.692930000000     0.991600000000     0.0550591  
H302     H      0.117790000000     0.674640000000     0.075570000000     0.0539952  
H303     H      0.217380000000     0.800420000000     0.005590000000     0.0402329  
H304     H      0.074040000000     0.617190000000     0.064390000000     0.0263883  
H305     H      0.899500000000     0.519710000000     0.057540000000     0.0284207  
H306     H      0.587720000000     0.407150000000     0.988190000000     0.0262669  
H307     H      0.781460000000     0.504460000000     0.066200000000     0.0389282  
H308     H      0.701390000000     0.411590000000     0.004440000000     0.0385637  
H309     H      0.640430000000     0.404370000000     0.012230000000     0.0569864  
H310     H      0.756660000000     0.413910000000     0.028470000000     0.0397289  
H311     H      0.707800000000     0.509210000000     0.988680000000     0.0778538  
H312     H      0.840300000000     0.516890000000     0.053730000000     0.0534982  
H313     H      0.789580000000     0.409710000000     0.071920000000     0.0543417  
H314     H      0.726170000000     0.502320000000     0.041440000000     0.0394684  
H315     H      0.849120000000     0.413460000000     0.073890000000     0.0218015  
H316     H      0.092830000000     0.454860000000     0.902080000000     0.0514421  
H317     H      0.372130000000     0.534420000000     0.011580000000     0.022845   
H318     H      0.195030000000     0.487180000000     0.958180000000     0.0464333  
H319     H      0.303010000000     0.582650000000     0.912640000000     0.0422899  
H320     H      0.318750000000     0.542390000000     0.000040000000     0.0564039  
H321     H      0.241510000000     0.572280000000     0.894910000000     0.0410843  
H322     H      0.331680000000     0.545890000000     0.908740000000     0.0808324  
H323     H      0.156870000000     0.469050000000     0.908790000000     0.065901   
H324     H      0.185980000000     0.571820000000     0.915040000000     0.0530776  
H325     H      0.256190000000     0.497640000000     0.975950000000     0.039984   
H326     H      0.121810000000     0.556470000000     0.908980000000     0.0195466  
H327     H      0.865590000000     0.832170000000     0.531540000000     0.0310759  
H328     H      0.563700000000     0.628270000000     0.546840000000     0.0252904  
H329     H      0.745730000000     0.778140000000     0.495220000000     0.0432839  
H330     H      0.676430000000     0.726020000000     0.584370000000     0.0416873  
H331     H      0.607650000000     0.687060000000     0.553170000000     0.0574843  
H332     H      0.730750000000     0.782070000000     0.584890000000     0.0419677  
H333     H      0.693370000000     0.671210000000     0.529630000000     0.0796017  
H334     H      0.805750000000     0.784560000000     0.537290000000     0.0569974  
H335     H      0.762350000000     0.850190000000     0.545580000000     0.0561658  
H336     H      0.692060000000     0.722820000000     0.494630000000     0.0414121  
H337     H      0.823370000000     0.898360000000     0.539330000000     0.0286171  
H338     H      0.403180000000     0.349270000000     0.398940000000     0.0358543  
H339     H      0.114360000000     0.134280000000     0.429480000000     0.0249725  
H340     H      0.277770000000     0.264610000000     0.385410000000     0.0417492  
H341     H      0.262310000000     0.163160000000     0.447690000000     0.0443792  
H342     H      0.172720000000     0.182140000000     0.420290000000     0.0578027  
H343     H      0.319320000000     0.215900000000     0.452120000000     0.0435207  
H344     H      0.217440000000     0.117800000000     0.411990000000     0.0806795  
H345     H      0.356990000000     0.293560000000     0.384920000000     0.0602747  
H346     H      0.316000000000     0.269670000000     0.470680000000     0.0554389  
H347     H      0.220370000000     0.211950000000     0.381250000000     0.0412407  
H348     H      0.360790000000     0.324790000000     0.483660000000     0.0211131  
H349     H      0.583020000000     0.990370000000     0.386770000000     0.0247258  
H350     H      0.831130000000     0.980030000000     0.486290000000     0.0293968  
H351     H      0.640350000000     0.892560000000     0.401640000000     0.0414494  
H352     H      0.742180000000     0.997470000000     0.437730000000     0.040551   
H353     H      0.770900000000     0.973170000000     0.474420000000     0.0573205  
H354     H      0.682070000000     0.992530000000     0.427160000000     0.0380305  
H355     H      0.763750000000     0.927740000000     0.396750000000     0.0789296  
H356     H      0.639900000000     0.989560000000     0.386060000000     0.0566263  
H357     H      0.589290000000     0.888950000000     0.427070000000     0.0580038  
H358     H      0.700810000000     0.897200000000     0.413160000000     0.0420916  
H359     H      0.532200000000     0.890430000000     0.426780000000     0.0303847  
H360     H      0.389580000000     0.993000000000     0.582780000000     0.0273723  
H361     H      0.158540000000     0.000070000000     0.478360000000     0.0403722  
H362     H      0.318810000000     0.044590000000     0.594730000000     0.0409294  
H363     H      0.283750000000     0.064670000000     0.491520000000     0.0444805  
H364     H      0.221930000000     0.015990000000     0.489930000000     0.0642478  
H365     H      0.344430000000     0.070840000000     0.504310000000     0.0424279  
H366     H      0.222760000000     0.066540000000     0.562050000000     0.0783559  
H367     H      0.341800000000     0.007420000000     0.583130000000     0.0569993  
H368     H      0.406440000000     0.100030000000     0.532450000000     0.0558378  
H369     H      0.257870000000     0.037770000000     0.581900000000     0.0427164  
H370     H      0.454500000000     0.084820000000     0.532990000000     0.0304084  
H371     H      0.080060000000     0.902840000000     0.452070000000     0.0316261  
H372     H      0.989960000000     0.623950000000     0.502520000000     0.0255163  
H373     H      0.078090000000     0.806000000000     0.423570000000     0.0439169  
H374     H      0.969990000000     0.707810000000     0.466370000000     0.0385493  
H375     H      0.997120000000     0.679130000000     0.495780000000     0.0529436  
H376     H      0.973100000000     0.761920000000     0.461060000000     0.0400369  
H377     H      0.045390000000     0.695630000000     0.414150000000     0.0784229  
H378     H      0.083920000000     0.852030000000     0.449170000000     0.0576719  
H379     H      0.968690000000     0.800310000000     0.424710000000     0.0559901  
H380     H      0.075870000000     0.751400000000     0.430550000000     0.0431731  
H381     H      0.965600000000     0.850240000000     0.429300000000     0.0270678  
H382     H      0.985770000000     0.338200000000     0.471120000000     0.0329229  
H383     H      0.920810000000     0.063500000000     0.545920000000     0.0227936  
H384     H      0.007160000000     0.254560000000     0.511820000000     0.0441157  
H385     H      0.888540000000     0.155280000000     0.536140000000     0.0394507  
H386     H      0.919000000000     0.113250000000     0.557040000000     0.0561153  
H387     H      0.896940000000     0.211830000000     0.538550000000     0.0400862  
H388     H      0.950570000000     0.157430000000     0.470590000000     0.0800996  
H389     H      0.976340000000     0.282030000000     0.477810000000     0.0565231  
H390     H      0.936950000000     0.270160000000     0.562740000000     0.0540119  
H391     H      0.998740000000     0.198760000000     0.509300000000     0.0424596  
H392     H      0.946800000000     0.327440000000     0.555480000000     0.0254511  
H393     H      0.013330000000     0.991300000000     0.627430000000     0.0259273  
H394     H      0.933110000000     0.005290000000     0.846940000000     0.0233074  
H395     H      0.885760000000     0.921890000000     0.698870000000     0.0408321  
H396     H      0.976080000000     0.007360000000     0.763190000000     0.0376446  
H397     H      0.932880000000     0.008440000000     0.794930000000     0.0549132  
H398     H      0.985880000000     0.014050000000     0.711440000000     0.0387896  
H399     H      0.903130000000     0.904570000000     0.799160000000     0.0792127  
H400     H      0.000710000000     0.984690000000     0.678070000000     0.0569671  
H401     H      0.889430000000     0.960610000000     0.653000000000     0.0543586  
H402     H      0.875640000000     0.915330000000     0.750990000000     0.0424697  
H403     H      0.902830000000     0.967460000000     0.602060000000     0.0276405  
H404     H      0.025590000000     0.937750000000     0.119120000000     0.0246497  
H405     H      0.969470000000     0.978870000000     0.339080000000     0.0290986  
H406     H      0.988050000000     0.945280000000     0.203470000000     0.0382873  
H407     H      0.089660000000     0.027400000000     0.264030000000     0.0453665  
H408     H      0.979000000000     0.982850000000     0.288360000000     0.0592329  
H409     H      0.095550000000     0.030870000000     0.211260000000     0.0438626  
H410     H      0.079380000000     0.980490000000     0.310090000000     0.0823781  
H411     H      0.029190000000     0.937570000000     0.171430000000     0.0552795  
H412     H      0.061450000000     0.042460000000     0.162950000000     0.0588953  
H413     H      0.982070000000     0.942140000000     0.255680000000     0.0386938  
H414     H      0.057210000000     0.041990000000     0.110090000000     0.0367556  
H415     H      0.830020000000     0.835380000000     0.931880000000     0.0519618  
H416     H      0.637420000000     0.597220000000     0.046630000000     0.0229245  
H417     H      0.694620000000     0.787470000000     0.999500000000     0.0402321  
H418     H      0.698950000000     0.683960000000     0.989060000000     0.0410348  
H419     H      0.682840000000     0.653320000000     0.032660000000     0.0556912  
H420     H      0.746320000000     0.736720000000     0.969130000000     0.0463481  
H421     H      0.600890000000     0.684360000000     0.024850000000     0.0768888  
H422     H      0.771360000000     0.784730000000     0.937640000000     0.0629973  
H423     H      0.753380000000     0.824610000000     0.009990000000     0.0532247  
H424     H      0.649930000000     0.735260000000     0.022740000000     0.0411693  
H425     H      0.809680000000     0.874210000000     0.002730000000     0.0286645  
H426     H      0.338100000000     0.360750000000     0.917190000000     0.0226529  
H427     H      0.153210000000     0.079740000000     0.952580000000     0.0303456  
H428     H      0.264380000000     0.270810000000     0.967930000000     0.0401656  
H429     H      0.268120000000     0.167030000000     0.956900000000     0.0376385  
H430     H      0.207280000000     0.131060000000     0.943070000000     0.0555339  
H431     H      0.317460000000     0.220580000000     0.938960000000     0.0375468  
H432     H      0.193230000000     0.169120000000     0.018000000000     0.078461   
H433     H      0.289160000000     0.304200000000     0.925110000000     0.0532812  
H434     H      0.368740000000     0.271310000000     0.951310000000     0.0531925  
H435     H      0.213960000000     0.217290000000     0.983860000000     0.0421531  
H436     H      0.417070000000     0.328110000000     0.941270000000     0.0270803  
H437     H      0.897140000000     0.971190000000     0.085100000000     0.0248925  
H438     H      0.659990000000     0.015300000000     0.978070000000     0.0237304  
H439     H      0.791010000000     0.959940000000     0.055030000000     0.0380675  
H440     H      0.776000000000     0.060920000000     0.036490000000     0.0388029  
H441     H      0.722090000000     0.026070000000     0.990310000000     0.0575731  
H442     H      0.837350000000     0.067650000000     0.047420000000     0.038131   
H443     H      0.691090000000     0.975580000000     0.075110000000     0.0804284  
H444     H      0.840500000000     0.972170000000     0.085980000000     0.0552949  
H445     H      0.885290000000     0.064890000000     0.031080000000     0.0497334  
H446     H      0.730290000000     0.953830000000     0.046300000000     0.0424932  
H447     H      0.942720000000     0.064260000000     0.033010000000     0.0198283  
H448     H      0.023320000000     0.872460000000     0.939820000000     0.0291558  
H449     H      0.325190000000     0.973370000000     0.990520000000     0.0248816  
H450     H      0.131060000000     0.863320000000     0.916690000000     0.040712   
H451     H      0.229270000000     0.976630000000     0.939330000000     0.0380367  
H452     H      0.262030000000     0.958940000000     0.980260000000     0.0551418  
H453     H      0.167450000000     0.967030000000     0.927000000000     0.0396069  
H454     H      0.256510000000     0.906610000000     0.907840000000     0.0780079  
H455     H      0.078560000000     0.866940000000     0.942830000000     0.0532277  
H456     H      0.126020000000     0.952020000000     0.879910000000     0.0566221  
H457     H      0.193730000000     0.873010000000     0.929260000000     0.0404191  
H458     H      0.071350000000     0.957120000000     0.877960000000     0.0270829  
H459     H      0.908390000000     0.569520000000     0.954480000000     0.0273874  
H460     H      0.983400000000     0.828970000000     0.028250000000     0.0190378  
H461     H      0.927510000000     0.673380000000     0.950390000000     0.0405736  
H462     H      0.916010000000     0.710710000000     0.042660000000     0.0388314  
H463     H      0.972440000000     0.772040000000     0.030490000000     0.055301   
H464     H      0.911110000000     0.655660000000     0.042860000000     0.0380459  
H465     H      0.885900000000     0.749740000000     0.964190000000     0.0810488  
H466     H      0.894250000000     0.614370000000     0.955540000000     0.0556192  
H467     H      0.952270000000     0.636280000000     0.039620000000     0.0529672  
H468     H      0.930390000000     0.727480000000     0.950220000000     0.0434011  
H469     H      0.964270000000     0.590740000000     0.038550000000     0.0270733  
H470     H      0.987040000000     0.117370000000     0.932420000000     0.0169588  
H471     H      0.016770000000     0.346820000000     0.029330000000     0.0256942  
H472     H      0.095280000000     0.247330000000     0.969320000000     0.0416561  
H473     H      0.981540000000     0.249800000000     0.983710000000     0.0419336  
H474     H      0.018960000000     0.295550000000     0.026170000000     0.0597575  
H475     H      0.978480000000     0.196680000000     0.976620000000     0.0379942  
H476     H      0.065940000000     0.333810000000     0.942880000000     0.0828034  
H477     H      0.995790000000     0.173510000000     0.932510000000     0.0528004  
H478     H      0.072790000000     0.190610000000     0.006280000000     0.0590861  
H479     H      0.098210000000     0.300720000000     0.975790000000     0.0417413  
H480     H      0.063170000000     0.134310000000     0.006180000000     0.040743   
N1       N      0.532670000000     0.488660000000     0.616980000000    -0.200914   
N2       N      0.535180000000     0.472730000000     0.862380000000    -0.191472   
N3       N      0.583640000000     0.477080000000     0.615270000000    -0.0327064  
N4       N      0.445300000000     0.487350000000     0.103330000000    -0.200028   
N5       N      0.463140000000     0.482310000000     0.350510000000    -0.191415   
N6       N      0.405880000000     0.426320000000     0.111150000000    -0.0327992  
N7       N      0.453060000000     0.832850000000     0.495710000000    -0.203803   
N8       N      0.444610000000     0.587110000000     0.492940000000    -0.193833   
N9       N      0.512260000000     0.846480000000     0.521810000000    -0.0312523  
N10      N      0.533340000000     0.371260000000     0.476690000000    -0.201014   
N11      N      0.533630000000     0.130680000000     0.474530000000    -0.192908   
N12      N      0.495020000000     0.352350000000     0.431490000000    -0.031675   
N13      N      0.548540000000     0.998720000000     0.613840000000    -0.20092    
N14      N      0.519140000000     0.986480000000     0.856660000000    -0.191892   
N15      N      0.576960000000     0.060230000000     0.610200000000    -0.0323675  
N16      N      0.430520000000     0.963460000000     0.356710000000    -0.200227   
N17      N      0.459110000000     0.979440000000     0.113730000000    -0.192125   
N18      N      0.421160000000     0.012720000000     0.351350000000    -0.0322201  
N19      N      0.515690000000     0.625270000000     0.952010000000    -0.196371   
N20      N      0.519040000000     0.874430000000     0.944170000000    -0.191481   
N21      N      0.527370000000     0.630530000000     0.900160000000    -0.0327798  
N22      N      0.461490000000     0.333970000000     0.013160000000    -0.198675   
N23      N      0.454450000000     0.086150000000     0.023710000000    -0.191852   
N24      N      0.458410000000     0.334750000000     0.065790000000    -0.0316998  
N25      N      0.880530000000     0.348910000000     0.440070000000    -0.201679   
N26      N      0.643880000000     0.097680000000     0.504930000000    -0.19151    
N27      N      0.831590000000     0.362930000000     0.424240000000    -0.0330643  
N28      N      0.332600000000     0.862660000000     0.466000000000    -0.201794   
N29      N      0.100450000000     0.612500000000     0.540440000000    -0.192066   
N30      N      0.301710000000     0.894830000000     0.472190000000    -0.0331714  
N31      N      0.608190000000     0.502120000000     0.418200000000    -0.205085   
N32      N      0.866590000000     0.510090000000     0.510160000000    -0.194175   
N33      N      0.593390000000     0.444380000000     0.411800000000    -0.031901   
N34      N      0.116170000000     0.464440000000     0.470530000000    -0.204086   
N35      N      0.376130000000     0.471170000000     0.559790000000    -0.194102   
N36      N      0.155690000000     0.521900000000     0.450020000000    -0.0333395  
N37      N      0.979900000000     0.496080000000     0.615990000000    -0.203767   
N38      N      0.950990000000     0.464330000000     0.858370000000    -0.193465   
N39      N      0.017300000000     0.468220000000     0.629250000000    -0.0314937  
N40      N      0.026290000000     0.477940000000     0.363730000000    -0.20177    
N41      N      0.040180000000     0.493630000000     0.119790000000    -0.193962   
N42      N      0.039270000000     0.430920000000     0.375180000000    -0.0333453  
N43      N      0.888590000000     0.333960000000     0.950220000000    -0.199384   
N44      N      0.632440000000     0.092660000000     0.934780000000    -0.191266   
N45      N      0.934810000000     0.326020000000     0.929300000000    -0.0324037  
N46      N      0.344160000000     0.869000000000     0.037700000000    -0.199814   
N47      N      0.093710000000     0.622160000000     0.022310000000    -0.191689   
N48      N      0.370890000000     0.832760000000     0.055950000000    -0.0317533  
N49      N      0.616770000000     0.459900000000     0.975980000000    -0.203076   
N50      N      0.878120000000     0.466570000000     0.063820000000    -0.193649   
N51      N      0.656480000000     0.518030000000     0.957010000000    -0.032777   
N52      N      0.380800000000     0.533580000000     0.967110000000    -0.204232   
N53      N      0.102690000000     0.503940000000     0.908210000000    -0.194294   
N54      N      0.392110000000     0.540920000000     0.915020000000    -0.0345958  
N55      N      0.602950000000     0.616520000000     0.533450000000    -0.201496   
N56      N      0.848890000000     0.869060000000     0.533970000000    -0.19051    
N57      N      0.653520000000     0.606040000000     0.526480000000    -0.0353984  
N58      N      0.131270000000     0.097440000000     0.427130000000    -0.198669   
N59      N      0.385140000000     0.341430000000     0.442120000000    -0.189971   
N60      N      0.155860000000     0.061000000000     0.417380000000    -0.0319509  
N61      N      0.833080000000     0.958140000000     0.448590000000    -0.199841   
N62      N      0.554210000000     0.941130000000     0.408220000000    -0.197472   
N63      N      0.825820000000     0.926620000000     0.406930000000    -0.031483   
N64      N      0.153140000000     0.023370000000     0.513550000000    -0.198088   
N65      N      0.424570000000     0.037110000000     0.556620000000    -0.192756   
N66      N      0.156130000000     0.057640000000     0.551640000000    -0.0311287  
N67      N      0.013350000000     0.626810000000     0.462480000000    -0.199532   
N68      N      0.022290000000     0.879710000000     0.442410000000    -0.189578   
N69      N      0.047500000000     0.639190000000     0.418640000000    -0.0310435  
N70      N      0.938570000000     0.082770000000     0.502670000000    -0.201811   
N71      N      0.967360000000     0.337400000000     0.512900000000    -0.190943   
N72      N      0.948930000000     0.104990000000     0.451380000000    -0.0320213  
N73      N      0.920290000000     0.953590000000     0.854180000000    -0.198832   
N74      N      0.959060000000     0.979850000000     0.610740000000    -0.191951   
N75      N      0.895780000000     0.892570000000     0.856130000000    -0.0322392  
N76      N      0.018760000000     0.977310000000     0.355000000000    -0.197994   
N77      N      0.040060000000     0.989680000000     0.110470000000    -0.190126   
N78      N      0.072680000000     0.969310000000     0.366990000000    -0.0314741  
N79      N      0.592440000000     0.607480000000     0.041480000000    -0.200867   
N80      N      0.825250000000     0.857900000000     0.967730000000    -0.188394   
N81      N      0.550080000000     0.627200000000     0.050810000000    -0.0314071  
N82      N      0.139470000000     0.094130000000     0.989990000000    -0.19957    
N83      N      0.381150000000     0.348880000000     0.930500000000    -0.193171   
N84      N      0.134110000000     0.114390000000     0.035030000000    -0.0313     
N85      N      0.639390000000     0.989710000000     0.019520000000    -0.20142    
N86      N      0.923350000000     0.016910000000     0.058010000000    -0.197627   
N87      N      0.620960000000     0.957200000000     0.066860000000    -0.0319492  
N88      N      0.328330000000     0.949100000000     0.955030000000    -0.200299   
N89      N      0.044510000000     0.916360000000     0.910040000000    -0.194675   
N90      N      0.323020000000     0.914280000000     0.916590000000    -0.0302479  
N91      N      0.941460000000     0.822700000000     0.994690000000    -0.20255    
N92      N      0.938260000000     0.577330000000     0.996010000000    -0.19369    
N93      N      0.885810000000     0.806990000000     0.962850000000    -0.0317361  
N94      N      0.038530000000     0.369020000000     0.987550000000    -0.202511   
N95      N      0.023630000000     0.121360000000     0.969800000000    -0.195233   
N96      N      0.071920000000     0.393860000000     0.943030000000    -0.0320335  
O1       O      0.097380000000     0.044360000000     0.972610000000    -0.382082   
O2       O      0.082550000000     0.062730000000     0.009230000000    -0.349844   
O3       O      0.938890000000     0.983390000000     0.894490000000    -0.371643   
O4       O      0.931500000000     0.930860000000     0.898860000000    -0.353002   
O5       O      0.995110000000     0.070210000000     0.951360000000    -0.386495   
O6       O      0.026710000000     0.077210000000     0.995240000000    -0.364062   
O7       O      0.035360000000     0.959530000000     0.915680000000    -0.384871   
O8       O      0.991860000000     0.908000000000     0.929250000000    -0.347656   
O9       O      0.090340000000     0.024320000000     0.919130000000    -0.331969   
O10      O      0.091000000000     0.970240000000     0.973490000000    -0.531002   
O11      O      0.997280000000     0.050090000000     0.896800000000    -0.524829   
O12      O      0.915220000000     0.021170000000     0.929600000000    -0.350584   
O13      O      0.025800000000     0.027290000000     0.963420000000    -0.495272   
O14      O      0.992470000000     0.977830000000     0.931350000000    -0.633395   
O15      O      0.971740000000     0.874570000000     0.012060000000    -0.381732   
O16      O      0.939840000000     0.867420000000     0.968340000000    -0.348967   
O17      O      0.945160000000     0.981940000000     0.051540000000    -0.35565    
O18      O      0.980400000000     0.035730000000     0.041280000000    -0.361192   
O19      O      0.869200000000     0.904870000000     0.987510000000    -0.380926   
O20      O      0.883800000000     0.885520000000     0.951300000000    -0.343274   
O21      O      0.020170000000     0.959320000000     0.070650000000    -0.364788   
O22      O      0.036790000000     0.014540000000     0.064750000000    -0.360103   
O23      O      0.972730000000     0.892170000000     0.066310000000    -0.517414   
O24      O      0.053790000000     0.927230000000     0.033250000000    -0.356361   
O25      O      0.875030000000     0.920360000000     0.043590000000    -0.344198   
O26      O      0.879260000000     0.979460000000     0.998850000000    -0.531601   
O27      O      0.940860000000     0.917780000000     0.000390000000    -0.630027   
O28      O      0.975220000000     0.967810000000     0.032390000000    -0.470928   
O29      O      0.007370000000     0.936150000000     0.975220000000    -0.492246   
O30      O      0.959920000000     0.009490000000     0.988510000000    -0.627734   
O31      O      0.042230000000     0.987050000000     0.008260000000    -0.630175   
O32      O      0.925600000000     0.958060000000     0.956290000000    -0.491266   
O33      O      0.985750000000     0.897640000000     0.457280000000    -0.368716   
O34      O      0.045440000000     0.934710000000     0.452310000000    -0.359232   
O35      O      0.887210000000     0.964020000000     0.435550000000    -0.35627    
O36      O      0.881410000000     0.970860000000     0.481960000000    -0.366845   
O37      O      0.981580000000     0.973490000000     0.389510000000    -0.373235   
O38      O      0.038920000000     0.982920000000     0.403450000000    -0.344423   
O39      O      0.905050000000     0.888940000000     0.516410000000    -0.377377   
O40      O      0.887410000000     0.925810000000     0.525970000000    -0.362552   
O41      O      0.924580000000     0.856510000000     0.486240000000    -0.330003   
O42      O      0.987740000000     0.890190000000     0.533210000000    -0.533932   
O43      O      0.908550000000     0.924050000000     0.404750000000    -0.517901   
O44      O      0.940570000000     0.010990000000     0.392140000000    -0.345182   
O45      O      0.982110000000     0.945260000000     0.448460000000    -0.487418   
O46      O      0.929060000000     0.941540000000     0.475000000000    -0.63344    
O47      O      0.998270000000     0.987750000000     0.576380000000    -0.380511   
O48      O      0.941500000000     0.979940000000     0.561990000000    -0.370271   
O49      O      0.076240000000     0.078610000000     0.446940000000    -0.377193   
O50      O      0.093010000000     0.040970000000     0.438200000000    -0.339477   
O51      O      0.976670000000     0.069530000000     0.483650000000    -0.359244   
O52      O      0.933480000000     0.030420000000     0.513350000000    -0.369354   
O53      O      0.096870000000     0.011680000000     0.527040000000    -0.34695    
O54      O      0.102550000000     0.000870000000     0.482030000000    -0.357691   
O55      O      0.069420000000     0.040200000000     0.564490000000    -0.519756   
O56      O      0.046500000000     0.956280000000     0.569460000000    -0.347241   
O57      O      0.057560000000     0.098180000000     0.500530000000    -0.35098    
O58      O      0.015420000000     0.089400000000     0.430820000000    -0.520381   
O59      O      0.999660000000     0.022100000000     0.516880000000    -0.635435   
O60      O      0.052420000000     0.024960000000     0.489870000000    -0.497408   
O61      O      0.971320000000     0.952130000000     0.528750000000    -0.501153   
O62      O      0.010510000000     0.014820000000     0.436490000000    -0.634818   
O63      O      0.026120000000     0.955500000000     0.502040000000    -0.629961   
O64      O      0.956630000000     0.011170000000     0.463400000000    -0.496132   
O65      O      0.032570000000     0.405450000000     0.012470000000    -0.373407   
O66      O      0.020940000000     0.405270000000     0.963380000000    -0.3459     
O67      O      0.901410000000     0.440220000000     0.042430000000    -0.379692   
O68      O      0.937930000000     0.494600000000     0.051580000000    -0.362504   
O69      O      0.905000000000     0.375570000000     0.979970000000    -0.378126   
O70      O      0.943150000000     0.383430000000     0.945370000000    -0.347923   
O71      O      0.039980000000     0.472810000000     0.077540000000    -0.378516   
O72      O      0.017940000000     0.509010000000     0.076920000000    -0.379843   
O73      O      0.025390000000     0.410610000000     0.069030000000    -0.32614    
O74      O      0.097060000000     0.475140000000     0.034700000000    -0.529064   
O75      O      0.919970000000     0.381100000000     0.047760000000    -0.534676   
O76      O      0.862280000000     0.398760000000     0.999120000000    -0.332702   
O77      O      0.979660000000     0.419340000000     0.999990000000    -0.498684   
O78      O      0.979300000000     0.455780000000     0.039190000000    -0.634835   
O79      O      0.078430000000     0.579390000000     0.994410000000    -0.383812   
O80      O      0.044280000000     0.570020000000     0.032530000000    -0.363069   
O81      O      0.949660000000     0.483330000000     0.901110000000    -0.379061   
O82      O      0.970190000000     0.446040000000     0.901340000000    -0.369695   
O83      O      0.941490000000     0.539340000000     0.970630000000    -0.374324   
O84      O      0.968270000000     0.549340000000     0.016150000000    -0.374451   
O85      O      0.059730000000     0.515910000000     0.921080000000    -0.359583   
O86      O      0.046010000000     0.462700000000     0.921680000000    -0.350621   
O87      O      0.095080000000     0.581060000000     0.941590000000    -0.519669   
O88      O      0.119500000000     0.533520000000     0.981990000000    -0.360283   
O89      O      0.968710000000     0.548730000000     0.914660000000    -0.335914   
O90      O      0.890070000000     0.476820000000     0.938640000000    -0.534005   
O91      O      0.007990000000     0.534050000000     0.978340000000    -0.631849   
O92      O      0.007110000000     0.497440000000     0.940230000000    -0.477112   
O93      O      0.047410000000     0.510060000000     0.019600000000    -0.501044   
O94      O      0.940100000000     0.443680000000     0.959220000000    -0.63336    
O95      O      0.046680000000     0.472890000000     0.980570000000    -0.627177   
O96      O      0.941320000000     0.479770000000     0.998320000000    -0.497318   
O97      O      0.967700000000     0.382810000000     0.529260000000    -0.36912    
O98      O      0.984590000000     0.385810000000     0.483650000000    -0.364025   
O99      O      0.886990000000     0.477990000000     0.494680000000    -0.384168   
O100     O      0.927800000000     0.525630000000     0.515340000000    -0.367864   
O101     O      0.894510000000     0.399500000000     0.453920000000    -0.363114   
O102     O      0.940150000000     0.391040000000     0.442540000000    -0.361336   
O103     O      0.978810000000     0.465980000000     0.580270000000    -0.355339   
O104     O      0.977700000000     0.514800000000     0.568020000000    -0.375811   
O105     O      0.916780000000     0.399040000000     0.559630000000    -0.34825    
O106     O      0.007420000000     0.420570000000     0.576790000000    -0.515051   
O107     O      0.854710000000     0.413930000000     0.484910000000    -0.516175   
O108     O      0.890360000000     0.467360000000     0.426410000000    -0.352072   
O109     O      0.947440000000     0.424110000000     0.491460000000    -0.504776   
O110     O      0.942370000000     0.466370000000     0.520050000000    -0.632216   
O111     O      0.085820000000     0.561380000000     0.527530000000    -0.375653   
O112     O      0.040390000000     0.572240000000     0.534610000000    -0.35991    
O113     O      0.018320000000     0.504000000000     0.398740000000    -0.374734   
O114     O      0.009500000000     0.451300000000     0.409340000000    -0.355264   
O115     O      0.011030000000     0.580350000000     0.446120000000    -0.353519   
O116     O      0.996580000000     0.578530000000     0.492210000000    -0.367482   
O117     O      0.086970000000     0.495510000000     0.465700000000    -0.345978   
O118     O      0.053630000000     0.440520000000     0.463320000000    -0.360523   
O119     O      0.128810000000     0.547530000000     0.501560000000    -0.51642    
O120     O      0.089180000000     0.485800000000     0.544010000000    -0.354779   
O121     O      0.057220000000     0.569560000000     0.412600000000    -0.311373   
O122     O      0.962940000000     0.530520000000     0.399920000000    -0.525614   
O123     O      0.033260000000     0.539760000000     0.484460000000    -0.636146   
O124     O      0.037520000000     0.497510000000     0.456670000000    -0.47399    
O125     O      0.017640000000     0.495560000000     0.536100000000    -0.481788   
O126     O      0.962170000000     0.467730000000     0.439680000000    -0.633767   
O127     O      0.022920000000     0.451810000000     0.507970000000    -0.632225   
O128     O      0.957090000000     0.511670000000     0.468660000000    -0.497564   
O129     O      0.384030000000     0.960070000000     0.940570000000    -0.349452   
O130     O      0.379070000000     0.969220000000     0.986390000000    -0.368339   
O131     O      0.484350000000     0.889650000000     0.965690000000    -0.37649    
O132     O      0.539410000000     0.930120000000     0.950050000000    -0.362094   
O133     O      0.397790000000     0.885710000000     0.016930000000    -0.358383   
O134     O      0.384070000000     0.924900000000     0.027720000000    -0.360885   
O135     O      0.481700000000     0.981830000000     0.891170000000    -0.375904   
O136     O      0.536530000000     0.984800000000     0.905280000000    -0.371488   
O137     O      0.408400000000     0.939310000000     0.896630000000    -0.316142   
O138     O      0.443020000000     0.023140000000     0.903520000000    -0.531104   
O139     O      0.407300000000     0.866600000000     0.964090000000    -0.523432   
O140     O      0.462110000000     0.871480000000     0.027300000000    -0.329182   
O141     O      0.425000000000     0.943070000000     0.975240000000    -0.493899   
O142     O      0.476700000000     0.945130000000     0.947670000000    -0.63115    
O143     O      0.577720000000     0.074660000000     0.954070000000    -0.380507   
O144     O      0.592550000000     0.036200000000     0.943450000000    -0.362719   
O145     O      0.496230000000     0.983170000000     0.079370000000    -0.377857   
O146     O      0.440340000000     0.977850000000     0.065280000000    -0.371303   
O147     O      0.585650000000     0.984210000000     0.032790000000    -0.349467   
O148     O      0.594930000000     0.986790000000     0.984970000000    -0.36771    
O149     O      0.491330000000     0.071240000000     0.004720000000    -0.375614   
O150     O      0.435920000000     0.030530000000     0.019360000000    -0.369252   
O151     O      0.567470000000     0.096090000000     0.004400000000    -0.523665   
O152     O      0.511790000000     0.086590000000     0.941120000000    -0.351621   
O153     O      0.573590000000     0.029210000000     0.064910000000    -0.342864   
O154     O      0.529680000000     0.941640000000     0.075060000000    -0.524075   
O155     O      0.550940000000     0.017770000000     0.995530000000    -0.635178   
O156     O      0.499000000000     0.015790000000     0.022860000000    -0.499476   
O157     O      0.511090000000     0.015130000000     0.941490000000    -0.498486   
O158     O      0.464700000000     0.945320000000     0.029060000000    -0.636363   
O159     O      0.458080000000     0.013790000000     0.968860000000    -0.632314   
O160     O      0.517190000000     0.946920000000     0.001640000000    -0.494165   
O161     O      0.503510000000     0.079800000000     0.455100000000    -0.369043   
O162     O      0.530420000000     0.084290000000     0.500750000000    -0.367589   
O163     O      0.371890000000     0.911480000000     0.485600000000    -0.363426   
O164     O      0.392510000000     0.891660000000     0.453870000000    -0.368693   
O165     O      0.427920000000     0.991730000000     0.547280000000    -0.383295   
O166     O      0.476240000000     0.042620000000     0.538290000000    -0.352677   
O167     O      0.452300000000     0.994560000000     0.396210000000    -0.354986   
O168     O      0.438620000000     0.940100000000     0.401840000000    -0.370081   
O169     O      0.425480000000     0.032970000000     0.430380000000    -0.334748   
O170     O      0.508700000000     0.060530000000     0.400870000000    -0.519407   
O171     O      0.378110000000     0.980900000000     0.492290000000    -0.533679   
O172     O      0.381470000000     0.921860000000     0.543970000000    -0.326192   
O173     O      0.463400000000     0.016200000000     0.490440000000    -0.497004   
O174     O      0.432480000000     0.966900000000     0.456580000000    -0.634482   
O175     O      0.532210000000     0.975080000000     0.417670000000    -0.353474   
O176     O      0.496910000000     0.920790000000     0.425150000000    -0.361381   
O177     O      0.528910000000     0.968100000000     0.574030000000    -0.383062   
O178     O      0.537120000000     0.020890000000     0.569110000000    -0.359413   
O179     O      0.478970000000     0.883300000000     0.514870000000    -0.356429   
O180     O      0.448570000000     0.876460000000     0.470410000000    -0.368016   
O181     O      0.604240000000     0.048950000000     0.485390000000    -0.37885    
O182     O      0.584000000000     0.068790000000     0.517410000000    -0.356098   
O183     O      0.593710000000     0.972890000000     0.473670000000    -0.53832    
O184     O      0.603940000000     0.034450000000     0.430450000000    -0.34381    
O185     O      0.552520000000     0.929070000000     0.543240000000    -0.331749   
O186     O      0.466680000000     0.900730000000     0.568900000000    -0.525675   
O187     O      0.513770000000     0.944190000000     0.480310000000    -0.630742   
O188     O      0.545000000000     0.994370000000     0.513800000000    -0.501832   
O189     O      0.501140000000     0.986840000000     0.435690000000    -0.465912   
O190     O      0.475670000000     0.973710000000     0.535440000000    -0.637637   
O191     O      0.532580000000     0.035670000000     0.468710000000    -0.633016   
O192     O      0.445280000000     0.924970000000     0.502110000000    -0.501128   
O193     O      0.459730000000     0.380240000000     0.025460000000    -0.348086   
O194     O      0.481330000000     0.381770000000     0.982240000000    -0.362104   
O195     O      0.399650000000     0.497870000000     0.957130000000    -0.36536    
O196     O      0.425170000000     0.527650000000     0.996680000000    -0.365694   
O197     O      0.395760000000     0.401740000000     0.938390000000    -0.38003    
O198     O      0.441120000000     0.388580000000     0.938470000000    -0.361995   
O199     O      0.450920000000     0.458400000000     0.069580000000    -0.355966   
O200     O      0.462190000000     0.511660000000     0.057040000000    -0.367277   
O201     O      0.399790000000     0.391950000000     0.042150000000    -0.321356   
O202     O      0.486380000000     0.419590000000     0.076630000000    -0.519433   
O203     O      0.358640000000     0.423730000000     0.977540000000    -0.540132   
O204     O      0.389020000000     0.456810000000     0.909050000000    -0.344583   
O205     O      0.443470000000     0.423230000000     0.981930000000    -0.503982   
O206     O      0.434500000000     0.465620000000     0.007160000000    -0.632882   
O207     O      0.578560000000     0.555840000000     0.029730000000    -0.385104   
O208     O      0.533030000000     0.568330000000     0.030360000000    -0.350274   
O209     O      0.530970000000     0.502360000000     0.896210000000    -0.37047    
O210     O      0.513920000000     0.447340000000     0.907370000000    -0.375508   
O211     O      0.517540000000     0.579540000000     0.937820000000    -0.34018    
O212     O      0.496160000000     0.576670000000     0.981440000000    -0.357739   
O213     O      0.588040000000     0.491240000000     0.972310000000    -0.340577   
O214     O      0.554370000000     0.436640000000     0.966700000000    -0.368427   
O215     O      0.624300000000     0.537410000000     0.013140000000    -0.516508   
O216     O      0.574370000000     0.476590000000     0.050270000000    -0.366947   
O217     O      0.575120000000     0.568560000000     0.918950000000    -0.328977   
O218     O      0.484000000000     0.534650000000     0.888710000000    -0.524523   
O219     O      0.533740000000     0.536960000000     0.982100000000    -0.633779   
O220     O      0.541160000000     0.493570000000     0.957540000000    -0.473434   
O221     O      0.507100000000     0.490970000000     0.032550000000    -0.499781   
O222     O      0.469360000000     0.468120000000     0.931910000000    -0.629926   
O223     O      0.515100000000     0.446780000000     0.007410000000    -0.632426   
O224     O      0.462460000000     0.512240000000     0.957450000000    -0.486345   
O225     O      0.529390000000     0.407870000000     0.503430000000    -0.377508   
O226     O      0.510260000000     0.405130000000     0.455680000000    -0.343799   
O227     O      0.397820000000     0.445480000000     0.535780000000    -0.384411   
O228     O      0.435710000000     0.498900000000     0.546960000000    -0.36225    
O229     O      0.401870000000     0.382410000000     0.472360000000    -0.380543   
O230     O      0.436930000000     0.392550000000     0.434650000000    -0.355956   
O231     O      0.531910000000     0.469110000000     0.573760000000    -0.352044   
O232     O      0.510610000000     0.505680000000     0.574670000000    -0.374857   
O233     O      0.493570000000     0.398860000000     0.558400000000    -0.34341    
O234     O      0.582250000000     0.459920000000     0.540730000000    -0.522833   
O235     O      0.394300000000     0.383810000000     0.532240000000    -0.523912   
O236     O      0.362890000000     0.422670000000     0.476170000000    -0.355261   
O237     O      0.470970000000     0.422390000000     0.491690000000    -0.501152   
O238     O      0.471310000000     0.457300000000     0.532380000000    -0.637214   
O239     O      0.586280000000     0.575840000000     0.502950000000    -0.368686   
O240     O      0.545290000000     0.570480000000     0.533940000000    -0.366503   
O241     O      0.463070000000     0.501340000000     0.393840000000    -0.373602   
O242     O      0.474690000000     0.458170000000     0.393760000000    -0.367198   
O243     O      0.452590000000     0.553590000000     0.465430000000    -0.373116   
O244     O      0.469060000000     0.554530000000     0.513780000000    -0.369089   
O245     O      0.565240000000     0.517940000000     0.422510000000    -0.360329   
O246     O      0.546950000000     0.464410000000     0.420850000000    -0.340052   
O247     O      0.601810000000     0.583660000000     0.445940000000    -0.528291   
O248     O      0.618700000000     0.527780000000     0.485630000000    -0.362616   
O249     O      0.486680000000     0.565960000000     0.412510000000    -0.336435   
O250     O      0.401100000000     0.497340000000     0.426840000000    -0.530568   
O251     O      0.513980000000     0.540710000000     0.477200000000    -0.632784   
O252     O      0.512860000000     0.505390000000     0.437080000000    -0.479769   
O253     O      0.543090000000     0.507700000000     0.518810000000    -0.488773   
O254     O      0.440550000000     0.455130000000     0.449940000000    -0.632865   
O255     O      0.541980000000     0.472390000000     0.478290000000    -0.629036   
O256     O      0.442430000000     0.489970000000     0.490550000000    -0.494658   
O257     O      0.593200000000     0.454310000000     0.623660000000    -0.110105   
O258     O      0.602300000000     0.500960000000     0.595870000000    -0.0939543  
O259     O      0.382380000000     0.422580000000     0.089280000000    -0.0988733  
O260     O      0.404870000000     0.399880000000     0.125770000000    -0.104012   
O261     O      0.533820000000     0.871050000000     0.504190000000    -0.11233    
O262     O      0.525670000000     0.840210000000     0.546960000000    -0.105833   
O263     O      0.462140000000     0.342110000000     0.439130000000    -0.0972648  
O264     O      0.500760000000     0.355300000000     0.404000000000    -0.0911441  
O265     O      0.601060000000     0.067550000000     0.591330000000    -0.0969212  
O266     O      0.571600000000     0.083850000000     0.617340000000    -0.10818    
O267     O      0.396130000000     0.002690000000     0.370000000000    -0.101318   
O268     O      0.436000000000     0.043560000000     0.340140000000    -0.111908   
O269     O      0.556050000000     0.646550000000     0.884790000000    -0.102634   
O270     O      0.497630000000     0.606870000000     0.888820000000    -0.0873647  
O271     O      0.490540000000     0.358920000000     0.072840000000    -0.108516   
O272     O      0.433420000000     0.321800000000     0.084770000000    -0.102044   
O273     O      0.800470000000     0.359170000000     0.430850000000    -0.119465   
O274     O      0.849390000000     0.385610000000     0.403750000000    -0.110791   
O275     O      0.281750000000     0.898370000000     0.489500000000    -0.113461   
O276     O      0.317350000000     0.918070000000     0.451430000000    -0.111609   
O277     O      0.593750000000     0.418160000000     0.425660000000    -0.102781   
O278     O      0.575290000000     0.441320000000     0.386720000000    -0.0833521  
O279     O      0.137620000000     0.518980000000     0.424930000000    -0.0858883  
O280     O      0.182350000000     0.551160000000     0.456030000000    -0.118228   
O281     O      0.016070000000     0.441530000000     0.643540000000    -0.11357    
O282     O      0.043570000000     0.486330000000     0.611800000000    -0.0996383  
O283     O      0.064560000000     0.442400000000     0.395980000000    -0.0844587  
O284     O      0.025420000000     0.399840000000     0.369720000000    -0.102935   
O285     O      0.943000000000     0.322410000000     0.904200000000    -0.103423   
O286     O      0.958830000000     0.332440000000     0.951150000000    -0.095785   
O287     O      0.369620000000     0.804800000000     0.051760000000    -0.106949   
O288     O      0.398060000000     0.853900000000     0.071730000000    -0.114708   
O289     O      0.639160000000     0.516150000000     0.931680000000    -0.0965031  
O290     O      0.682360000000     0.547050000000     0.964380000000    -0.11793    
O291     O      0.427550000000     0.555530000000     0.918290000000    -0.0916201  
O292     O      0.376550000000     0.531900000000     0.889440000000    -0.108297   
O293     O      0.641180000000     0.577150000000     0.541510000000    -0.0994155  
O294     O      0.681780000000     0.616410000000     0.511120000000    -0.12402    
O295     O      0.179960000000     0.052920000000     0.429860000000    -0.102627   
O296     O      0.133370000000     0.043300000000     0.397010000000    -0.0789351  
O297     O      0.822690000000     0.929920000000     0.378630000000    -0.111107   
O298     O      0.832920000000     0.903430000000     0.419560000000    -0.115807   
O299     O      0.143660000000     0.076230000000     0.536900000000    -0.107644   
O300     O      0.161060000000     0.058370000000     0.579800000000    -0.115844   
O301     O      0.074970000000     0.634580000000     0.428480000000    -0.100906   
O302     O      0.041880000000     0.643520000000     0.390660000000    -0.102209   
O303     O      0.968590000000     0.131410000000     0.434470000000    -0.11575    
O304     O      0.929700000000     0.076380000000     0.440170000000    -0.107135   
O305     O      0.903730000000     0.870720000000     0.848610000000    -0.101516   
O306     O      0.870500000000     0.882950000000     0.874470000000    -0.0916378  
O307     O      0.107640000000     0.984550000000     0.363600000000    -0.0890486  
O308     O      0.058600000000     0.942180000000     0.384460000000    -0.091118   
O309     O      0.539230000000     0.649390000000     0.044640000000    -0.116919   
O310     O      0.534770000000     0.603940000000     0.071630000000    -0.097396   
O311     O      0.129250000000     0.138180000000     0.042450000000    -0.109952   
O312     O      0.129580000000     0.089600000000     0.054120000000    -0.100332   
O313     O      0.627770000000     0.960860000000     0.094620000000    -0.10897    
O314     O      0.592300000000     0.930450000000     0.058200000000    -0.103671   
O315     O      0.316710000000     0.913160000000     0.888530000000    -0.104545   
O316     O      0.336050000000     0.895840000000     0.930760000000    -0.108244   
O317     O      0.869150000000     0.817220000000     0.977540000000    -0.107251   
O318     O      0.872230000000     0.796620000000     0.937200000000    -0.101954   
O319     O      0.072380000000     0.388990000000     0.916060000000    -0.106027   
O320     O      0.093660000000     0.423270000000     0.952120000000    -0.119316   
Zr1      Zr     0.049010000000     0.991140000000     0.957550000000     1.38482    
Zr2      Zr     0.968270000000     0.012700000000     0.938450000000     1.37966    
Zr3      Zr     0.998470000000     0.932130000000     0.025230000000     1.37297    
Zr4      Zr     0.918630000000     0.954620000000     0.006900000000     1.37273    
Zr5      Zr     0.017860000000     0.023000000000     0.014200000000     1.38202    
Zr6      Zr     0.950010000000     0.922350000000     0.949570000000     1.38007    
Zr7      Zr     0.963890000000     0.915260000000     0.494350000000     1.37064    
Zr8      Zr     0.948700000000     0.973070000000     0.429910000000     1.39202    
Zr9      Zr     0.033160000000     0.993940000000     0.535130000000     1.38913    
Zr10     Zr     0.018550000000     0.051980000000     0.470860000000     1.39809    
Zr11     Zr     0.044220000000     0.986830000000     0.455930000000     1.3837     
Zr12     Zr     0.937560000000     0.979860000000     0.509190000000     1.37096    
Zr13     Zr     0.031840000000     0.452950000000     0.029550000000     1.38398    
Zr14     Zr     0.928040000000     0.423430000000     0.008620000000     1.38368    
Zr15     Zr     0.059680000000     0.529270000000     0.970080000000     1.37085    
Zr16     Zr     0.954880000000     0.500610000000     0.949650000000     1.38187    
Zr17     Zr     0.993060000000     0.440440000000     0.950690000000     1.38027    
Zr18     Zr     0.994210000000     0.512930000000     0.027590000000     1.3687     
Zr19     Zr     0.974910000000     0.437380000000     0.538400000000     1.38911    
Zr20     Zr     0.916220000000     0.453510000000     0.472160000000     1.39185    
Zr21     Zr     0.064210000000     0.509940000000     0.504350000000     1.37943    
Zr22     Zr     0.004630000000     0.525900000000     0.437770000000     1.39826    
Zr23     Zr     0.994960000000     0.439160000000     0.460090000000     1.38081    
Zr24     Zr     0.985540000000     0.524860000000     0.516010000000     1.36937    
Zr25     Zr     0.447980000000     0.978090000000     0.932330000000     1.38248    
Zr26     Zr     0.454120000000     0.910980000000     0.991320000000     1.39944    
Zr27     Zr     0.521220000000     0.049520000000     0.979040000000     1.38689    
Zr28     Zr     0.527590000000     0.982680000000     0.038340000000     1.38756    
Zr29     Zr     0.435880000000     0.978490000000     0.012510000000     1.36882    
Zr30     Zr     0.540160000000     0.982270000000     0.958140000000     1.36918    
Zr31     Zr     0.476890000000     0.022290000000     0.441230000000     1.38816    
Zr32     Zr     0.421040000000     0.960730000000     0.506510000000     1.39442    
Zr33     Zr     0.556140000000     0.999490000000     0.463880000000     1.369      
Zr34     Zr     0.501180000000     0.939320000000     0.529700000000     1.38859    
Zr35     Zr     0.518880000000     0.029140000000     0.518510000000     1.38198    
Zr36     Zr     0.457510000000     0.931160000000     0.452110000000     1.37758    
Zr37     Zr     0.461940000000     0.433780000000     0.031000000000     1.39879    
Zr38     Zr     0.417800000000     0.455490000000     0.957340000000     1.39135    
Zr39     Zr     0.558840000000     0.504180000000     0.007160000000     1.36976    
Zr40     Zr     0.514670000000     0.525450000000     0.933010000000     1.40023    
Zr41     Zr     0.495880000000     0.436020000000     0.957470000000     1.37262    
Zr42     Zr     0.480720000000     0.522940000000     0.007050000000     1.37814    
Zr43     Zr     0.521180000000     0.449160000000     0.525350000000     1.39698    
Zr44     Zr     0.422130000000     0.431910000000     0.497780000000     1.38757    
Zr45     Zr     0.562860000000     0.530640000000     0.471320000000     1.37803    
Zr46     Zr     0.463410000000     0.513920000000     0.443610000000     1.38401    
Zr47     Zr     0.490640000000     0.446450000000     0.444060000000     1.38811    
Zr48     Zr     0.492680000000     0.516030000000     0.524480000000     1.37792    


