data_structure

_audit_creation_method RASPA-1.0
_audit_creation_date 2023-6-4
_audit_author_name 'Poobodin Mano'

_cell_length_a    43.6601
_cell_length_b    46.0104
_cell_length_c    47.155
_cell_angle_alpha 82.7768
_cell_angle_beta  96.3124
_cell_angle_gamma 119.436
_cell_volume      81715.3

_symmetry_cell_setting          triclinic
_symmetry_space_group_name_Hall 'P 1'
_symmetry_space_group_name_H-M  'P 1'
_symmetry_Int_Tables_number     1

_symmetry_equiv_pos_as_xyz 'x,y,z'

loop_
_atom_site_label
_atom_site_type_symbol
_atom_site_fract_x
_atom_site_fract_y
_atom_site_fract_z
_atom_site_charge
C1       C      0.115700000000     0.089110000000     0.017250000000     0.349425   
C2       C      0.968400000000     0.973120000000     0.896050000000     0.350576   
C3       C      0.034810000000     0.111790000000     0.974530000000     0.353389   
C4       C      0.055280000000     0.947290000000     0.945990000000     0.351388   
C5       C      0.971280000000     0.880330000000     0.014690000000     0.353346   
C6       C      0.950620000000     0.043140000000     0.044860000000     0.349333   
C7       C      0.890140000000     0.903570000000     0.970570000000     0.345993   
C8       C      0.033970000000     0.018130000000     0.093510000000     0.353079   
C9       C      0.030260000000     0.927100000000     0.454940000000     0.347931   
C10      C      0.884390000000     0.987560000000     0.471680000000     0.34492    
C11      C      0.024180000000     0.013600000000     0.395560000000     0.34679    
C12      C      0.895980000000     0.908420000000     0.533940000000     0.346437   
C13      C      0.975140000000     0.983360000000     0.593520000000     0.355942   
C14      C      0.106090000000     0.092780000000     0.456520000000     0.34665    
C15      C      0.969260000000     0.074350000000     0.532210000000     0.348022   
C16      C      0.118180000000     0.017540000000     0.517220000000     0.349357   
C17      C      0.032750000000     0.414440000000     0.986880000000     0.351925   
C18      C      0.914970000000     0.487120000000     0.057210000000     0.351256   
C19      C      0.920010000000     0.397370000000     0.953070000000     0.345228   
C20      C      0.028340000000     0.496820000000     0.099150000000     0.348      
C21      C      0.084240000000     0.599050000000     0.041590000000     0.345443   
C22      C      0.978350000000     0.503240000000     0.895180000000     0.351222   
C23      C      0.965020000000     0.578640000000     0.008680000000     0.353125   
C24      C      0.087600000000     0.511820000000     0.934670000000     0.346318   
C25      C      0.986060000000     0.390090000000     0.520590000000     0.345841   
C26      C      0.906700000000     0.523560000000     0.512460000000     0.353358   
C27      C      0.917970000000     0.397530000000     0.456490000000     0.353061   
C28      C      0.979340000000     0.510100000000     0.592190000000     0.349885   
C29      C      0.079380000000     0.600360000000     0.541760000000     0.347627   
C30      C      0.021890000000     0.491640000000     0.401210000000     0.347744   
C31      C      0.009100000000     0.609420000000     0.471060000000     0.343086   
C32      C      0.092300000000     0.480170000000     0.478480000000     0.352741   
C33      C      0.385620000000     0.981360000000     0.969620000000     0.348095   
C34      C      0.532270000000     0.923780000000     0.954380000000     0.348352   
C35      C      0.394670000000     0.907080000000     0.028210000000     0.345495   
C36      C      0.528860000000     0.015730000000     0.893620000000     0.349523   
C37      C      0.609510000000     0.090050000000     0.955300000000     0.343331   
C38      C      0.478420000000     0.984270000000     0.091820000000     0.348341   
C39      C      0.618080000000     0.009420000000     0.015870000000     0.34313    
C40      C      0.474430000000     0.072870000000     0.032560000000     0.348858   
C41      C      0.528470000000     0.109770000000     0.469420000000     0.354739   
C42      C      0.384620000000     0.902160000000     0.473280000000     0.349129   
C43      C      0.448910000000     0.048070000000     0.539330000000     0.350398   
C44      C      0.464410000000     0.969240000000     0.394640000000     0.349726   
C45      C      0.548360000000     0.943460000000     0.445300000000     0.350582   
C46      C      0.534570000000     0.021370000000     0.590770000000     0.348819   
C47      C      0.464650000000     0.879440000000     0.516220000000     0.354392   
C48      C      0.612800000000     0.087620000000     0.514340000000     0.345612   
C49      C      0.490920000000     0.388870000000     0.019000000000     0.343367   
C50      C      0.408980000000     0.521030000000     0.004560000000     0.353737   
C51      C      0.423080000000     0.394230000000     0.953690000000     0.354123   
C52      C      0.481770000000     0.510110000000     0.087120000000     0.350481   
C53      C      0.581860000000     0.599960000000     0.035940000000     0.34622    
C54      C      0.526930000000     0.488030000000     0.898040000000     0.348121   
C55      C      0.511450000000     0.606700000000     0.964520000000     0.343301   
C56      C      0.596740000000     0.477470000000     0.978430000000     0.352501   
C57      C      0.527050000000     0.410130000000     0.482260000000     0.355076   
C58      C      0.414820000000     0.491400000000     0.548670000000     0.35202    
C59      C      0.419570000000     0.401050000000     0.444730000000     0.348109   
C60      C      0.523540000000     0.491540000000     0.595230000000     0.347761   
C61      C      0.585560000000     0.596960000000     0.539840000000     0.349211   
C62      C      0.484940000000     0.507920000000     0.390110000000     0.351104   
C63      C      0.472610000000     0.582820000000     0.504420000000     0.355599   
C64      C      0.583380000000     0.514820000000     0.430280000000     0.332325   
C65      C      0.528920000000     0.489180000000     0.626860000000    -0.107346   
C66      C      0.526950000000     0.459920000000     0.641910000000     0.0210005  
C67      C      0.531000000000     0.457430000000     0.671830000000    -0.0702689  
C68      C      0.537670000000     0.484340000000     0.687260000000     0.0294992  
C69      C      0.540150000000     0.513720000000     0.672220000000    -0.0700453  
C70      C      0.535620000000     0.516060000000     0.642400000000     0.0234667  
C71      C      0.541130000000     0.481740000000     0.719010000000    -0.000567548
C72      C      0.516110000000     0.453770000000     0.735020000000    -0.0376733  
C73      C      0.517160000000     0.453160000000     0.764860000000    -0.0374476  
C74      C      0.543430000000     0.480430000000     0.779270000000    -0.000547431
C75      C      0.569620000000     0.507480000000     0.763260000000    -0.0375311  
C76      C      0.568350000000     0.508210000000     0.733480000000    -0.0378954  
C77      C      0.541740000000     0.482240000000     0.810320000000     0.0293276  
C78      C      0.531320000000     0.453780000000     0.829980000000    -0.0695122  
C79      C      0.527440000000     0.455610000000     0.858750000000     0.0219965  
C80      C      0.533690000000     0.485900000000     0.868360000000    -0.106515   
C81      C      0.544970000000     0.514440000000     0.848750000000     0.02169    
C82      C      0.548840000000     0.512610000000     0.820220000000    -0.0698168  
C83      C      0.476470000000     0.512940000000     0.117050000000    -0.106187   
C84      C      0.482340000000     0.543300000000     0.126260000000     0.0233188  
C85      C      0.479000000000     0.545640000000     0.155040000000    -0.0694191  
C86      C      0.469450000000     0.517600000000     0.175080000000     0.0298956  
C87      C      0.463050000000     0.487240000000     0.165670000000    -0.0702356  
C88      C      0.466460000000     0.484930000000     0.137140000000     0.0227613  
C89      C      0.467530000000     0.519760000000     0.206010000000    -0.00046543 
C90      C      0.493640000000     0.547170000000     0.220350000000    -0.0371953  
C91      C      0.494460000000     0.546770000000     0.250170000000    -0.0373159  
C92      C      0.469290000000     0.518900000000     0.266190000000    -0.000593049
C93      C      0.442140000000     0.492370000000     0.251700000000    -0.037803   
C94      C      0.441170000000     0.492860000000     0.221970000000    -0.0376137  
C95      C      0.472590000000     0.516260000000     0.297950000000     0.0300617  
C96      C      0.479560000000     0.543210000000     0.313470000000    -0.0705324  
C97      C      0.483150000000     0.540450000000     0.343430000000     0.0230183  
C98      C      0.480390000000     0.510860000000     0.358420000000    -0.106799   
C99      C      0.473510000000     0.484010000000     0.342770000000     0.0239558  
C100     C      0.469490000000     0.486630000000     0.312940000000    -0.0700044  
C101     C      0.460880000000     0.606780000000     0.509130000000    -0.111414   
C102     C      0.438160000000     0.612810000000     0.488870000000     0.0254196  
C103     C      0.428200000000     0.636390000000     0.493100000000    -0.0731091  
C104     C      0.441060000000     0.654560000000     0.517500000000     0.0311379  
C105     C      0.462540000000     0.647480000000     0.538310000000    -0.0722563  
C106     C      0.472280000000     0.623760000000     0.534210000000     0.0257658  
C107     C      0.435680000000     0.683460000000     0.519620000000    -0.00137959 
C108     C      0.439840000000     0.705860000000     0.495410000000    -0.0372466  
C109     C      0.439070000000     0.735280000000     0.497550000000    -0.0375278  
C110     C      0.433970000000     0.743020000000     0.523930000000    -0.000971276
C111     C      0.429020000000     0.720360000000     0.548140000000    -0.0380685  
C112     C      0.429800000000     0.690700000000     0.545980000000    -0.0378007  
C113     C      0.436030000000     0.775740000000     0.525790000000     0.0309762  
C114     C      0.421200000000     0.788420000000     0.503170000000    -0.0727502  
C115     C      0.429800000000     0.821860000000     0.500790000000     0.0265218  
C116     C      0.452320000000     0.843230000000     0.521560000000    -0.10938    
C117     C      0.464600000000     0.829900000000     0.545710000000     0.0236608  
C118     C      0.456720000000     0.796320000000     0.547700000000    -0.070993   
C119     C      0.537520000000     0.145050000000     0.462740000000    -0.113345   
C120     C      0.560700000000     0.169180000000     0.481360000000     0.027033   
C121     C      0.566270000000     0.201850000000     0.476860000000    -0.0732907  
C122     C      0.548370000000     0.210720000000     0.453910000000     0.0320048  
C123     C      0.526730000000     0.187210000000     0.434380000000    -0.0737972  
C124     C      0.521560000000     0.154620000000     0.438620000000     0.0258639  
C125     C      0.548050000000     0.242540000000     0.453190000000    -0.00187118 
C126     C      0.515640000000     0.241960000000     0.453350000000    -0.0371161  
C127     C      0.514730000000     0.270860000000     0.457570000000    -0.0376653  
C128     C      0.546180000000     0.300750000000     0.461240000000    -0.00181097 
C129     C      0.578640000000     0.301930000000     0.459680000000    -0.0380693  
C130     C      0.579590000000     0.272770000000     0.455960000000    -0.0379334  
C131     C      0.544700000000     0.330190000000     0.467840000000     0.0322247  
C132     C      0.530650000000     0.329490000000     0.493420000000    -0.0737884  
C133     C      0.526130000000     0.356210000000     0.498730000000     0.0270267  
C134     C      0.534900000000     0.383490000000     0.478160000000    -0.114005   
C135     C      0.549810000000     0.384450000000     0.452860000000     0.0271966  
C136     C      0.554980000000     0.358040000000     0.447850000000    -0.0735292  
C137     C      0.536790000000     0.022520000000     0.863030000000    -0.107064   
C138     C      0.555030000000     0.009020000000     0.851670000000     0.0242539  
C139     C      0.559700000000     0.013370000000     0.822210000000    -0.0695618  
C140     C      0.546760000000     0.031850000000     0.803590000000     0.0305197  
C141     C      0.529970000000     0.046600000000     0.815380000000    -0.0709374  
C142     C      0.524720000000     0.041680000000     0.844630000000     0.0270852  
C143     C      0.549230000000     0.034570000000     0.771930000000    -0.0006214  
C144     C      0.578300000000     0.036130000000     0.760070000000    -0.0372925  
C145     C      0.579520000000     0.037170000000     0.730390000000    -0.037889   
C146     C      0.552000000000     0.037190000000     0.711910000000    -0.000731417
C147     C      0.523350000000     0.036290000000     0.723630000000    -0.0378067  
C148     C      0.521830000000     0.034730000000     0.753230000000    -0.0372102  
C149     C      0.551830000000     0.036080000000     0.680600000000     0.0298789  
C150     C      0.557760000000     0.012210000000     0.669980000000    -0.0712674  
C151     C      0.553320000000     0.008230000000     0.640660000000     0.0230224  
C152     C      0.543350000000     0.028380000000     0.621280000000    -0.108918   
C153     C      0.539190000000     0.053440000000     0.631790000000     0.0230975  
C154     C      0.543090000000     0.057050000000     0.661200000000    -0.0707649  
C155     C      0.470670000000     0.978440000000     0.122470000000    -0.108471   
C156     C      0.486930000000     0.964040000000     0.142310000000     0.0251795  
C157     C      0.480300000000     0.958860000000     0.171320000000    -0.0718298  
C158     C      0.457660000000     0.968410000000     0.181240000000     0.0306699  
C159     C      0.441160000000     0.982610000000     0.161470000000    -0.0707148  
C160     C      0.447340000000     0.987290000000     0.132300000000     0.0247793  
C161     C      0.452740000000     0.964970000000     0.212340000000    -0.000760763
C162     C      0.445710000000     0.935050000000     0.229030000000    -0.0377604  
C163     C      0.443360000000     0.932670000000     0.258670000000    -0.0374467  
C164     C      0.448500000000     0.960360000000     0.272340000000    -0.000612183
C165     C      0.455140000000     0.990150000000     0.255400000000    -0.0371098  
C166     C      0.456940000000     0.992320000000     0.225770000000    -0.0376124  
C167     C      0.448500000000     0.958930000000     0.304150000000     0.0296012  
C168     C      0.462490000000     0.940930000000     0.322200000000    -0.0695796  
C169     C      0.465820000000     0.942610000000     0.351930000000     0.024093   
C170     C      0.455810000000     0.962770000000     0.364110000000    -0.107966   
C171     C      0.440450000000     0.979530000000     0.346320000000     0.0232233  
C172     C      0.436450000000     0.977320000000     0.316770000000    -0.0700854  
C173     C      0.515560000000     0.640810000000     0.957550000000    -0.104213   
C174     C      0.500910000000     0.652960000000     0.974960000000     0.0217408  
C175     C      0.505460000000     0.685310000000     0.969460000000    -0.0700154  
C176     C      0.524960000000     0.706580000000     0.946480000000     0.028523   
C177     C      0.539860000000     0.694670000000     0.929070000000    -0.0691797  
C178     C      0.534990000000     0.662000000000     0.934420000000     0.0192459  
C179     C      0.529150000000     0.740870000000     0.940950000000    -0.00044764 
C180     C      0.500010000000     0.745700000000     0.942310000000    -0.0377205  
C181     C      0.503870000000     0.777850000000     0.939480000000    -0.036968   
C182     C      0.537010000000     0.806220000000     0.935150000000    -0.000483994
C183     C      0.566140000000     0.801450000000     0.933140000000    -0.0376181  
C184     C      0.562200000000     0.769050000000     0.935830000000    -0.0378175  
C185     C      0.540750000000     0.840310000000     0.934540000000     0.0306291  
C186     C      0.568700000000     0.865410000000     0.950040000000    -0.0691699  
C187     C      0.568000000000     0.894750000000     0.954290000000     0.0255868  
C188     C      0.539290000000     0.899240000000     0.943210000000    -0.106585   
C189     C      0.512980000000     0.875540000000     0.925820000000     0.0267832  
C190     C      0.513890000000     0.846600000000     0.921260000000    -0.0705231  
C191     C      0.467490000000     0.097590000000     0.043610000000    -0.106906   
C192     C      0.494430000000     0.122490000000     0.059690000000     0.0261657  
C193     C      0.493040000000     0.151310000000     0.063820000000    -0.0708258  
C194     C      0.465000000000     0.156300000000     0.051420000000     0.0300327  
C195     C      0.436530000000     0.130050000000     0.037370000000    -0.0695021  
C196     C      0.437720000000     0.100820000000     0.033580000000     0.0233511  
C197     C      0.467890000000     0.190150000000     0.050110000000    -0.000759997
C198     C      0.438530000000     0.194320000000     0.052920000000    -0.037751   
C199     C      0.441600000000     0.226420000000     0.049650000000    -0.03809    
C200     C      0.473960000000     0.254870000000     0.043140000000    -0.000636658
C201     C      0.503340000000     0.250650000000     0.040970000000    -0.0379383  
C202     C      0.500350000000     0.218830000000     0.044350000000    -0.0371971  
C203     C      0.477230000000     0.288810000000     0.037130000000     0.028114   
C204     C      0.463000000000     0.301020000000     0.054900000000    -0.0695206  
C205     C      0.467630000000     0.333620000000     0.049360000000     0.019371   
C206     C      0.486200000000     0.354460000000     0.025740000000    -0.104209   
C207     C      0.499890000000     0.341860000000     0.007840000000     0.0199049  
C208     C      0.495520000000     0.309590000000     0.013480000000    -0.0703496  
C209     C      0.891180000000     0.362450000000     0.452320000000    -0.10825    
C210     C      0.856470000000     0.355240000000     0.443880000000     0.0257901  
C211     C      0.828560000000     0.322840000000     0.448100000000    -0.0715767  
C212     C      0.834570000000     0.296580000000     0.460720000000     0.0301152  
C213     C      0.869670000000     0.303250000000     0.466880000000    -0.0695642  
C214     C      0.897770000000     0.335920000000     0.462680000000     0.0245383  
C215     C      0.804090000000     0.263640000000     0.469840000000    -0.000939567
C216     C      0.771620000000     0.251250000000     0.453830000000    -0.0374727  
C217     C      0.741650000000     0.223140000000     0.464360000000    -0.037946   
C218     C      0.743470000000     0.206230000000     0.490870000000    -0.000575632
C219     C      0.776110000000     0.217360000000     0.506310000000    -0.038171   
C220     C      0.806060000000     0.245950000000     0.496030000000    -0.037054   
C221     C      0.711240000000     0.176800000000     0.501920000000     0.030207   
C222     C      0.680280000000     0.178780000000     0.503020000000    -0.0705679  
C223     C      0.648590000000     0.150020000000     0.509760000000     0.0226474  
C224     C      0.647190000000     0.118660000000     0.514930000000    -0.106699   
C225     C      0.678610000000     0.117050000000     0.515430000000     0.0263742  
C226     C      0.710430000000     0.145920000000     0.509270000000    -0.0705389  
C227     C      0.350110000000     0.871310000000     0.473120000000    -0.106936   
C228     C      0.348320000000     0.839980000000     0.479930000000     0.0255329  
C229     C      0.316710000000     0.811980000000     0.488050000000    -0.0709274  
C230     C      0.286180000000     0.814740000000     0.488940000000     0.0309701  
C231     C      0.287210000000     0.845410000000     0.479760000000    -0.0704969  
C232     C      0.318980000000     0.873530000000     0.472170000000     0.0269985  
C233     C      0.254330000000     0.786610000000     0.501750000000    -0.000552809
C234     C      0.257120000000     0.771460000000     0.528940000000    -0.0376288  
C235     C      0.227400000000     0.744680000000     0.541200000000    -0.0374948  
C236     C      0.194220000000     0.731960000000     0.526300000000    -0.000888467
C237     C      0.191360000000     0.747920000000     0.499370000000    -0.0373596  
C238     C      0.221070000000     0.775150000000     0.487340000000    -0.0382577  
C239     C      0.163710000000     0.700160000000     0.537240000000     0.0291026  
C240     C      0.169190000000     0.673900000000     0.550730000000    -0.0708197  
C241     C      0.140850000000     0.641840000000     0.555630000000     0.0244396  
C242     C      0.106330000000     0.635100000000     0.546920000000    -0.108324   
C243     C      0.100350000000     0.661930000000     0.536290000000     0.0209592  
C244     C      0.128820000000     0.694200000000     0.531490000000    -0.0697678  
C245     C      0.619740000000     0.520200000000     0.435670000000    -0.111835   
C246     C      0.648490000000     0.552870000000     0.435080000000     0.0238492  
C247     C      0.682000000000     0.558470000000     0.445650000000    -0.0694086  
C248     C      0.687230000000     0.531480000000     0.457180000000     0.0325567  
C249     C      0.658960000000     0.498720000000     0.456190000000    -0.0700494  
C250     C      0.625620000000     0.493100000000     0.445390000000     0.0224504  
C251     C      0.721560000000     0.537170000000     0.471210000000    -0.00102064 
C252     C      0.753140000000     0.558320000000     0.457710000000    -0.0379713  
C253     C      0.784950000000     0.560710000000     0.469840000000    -0.0373312  
C254     C      0.785710000000     0.542180000000     0.495780000000    -0.00106797 
C255     C      0.754400000000     0.522850000000     0.510140000000    -0.0383934  
C256     C      0.722670000000     0.520260000000     0.497930000000    -0.0373481  
C257     C      0.817660000000     0.539260000000     0.505680000000     0.0308975  
C258     C      0.851710000000     0.566980000000     0.503590000000    -0.0710552  
C259     C      0.881470000000     0.562520000000     0.508350000000     0.0261907  
C260     C      0.877430000000     0.530230000000     0.514860000000    -0.11003    
C261     C      0.843620000000     0.503000000000     0.518830000000     0.0267202  
C262     C      0.814100000000     0.507450000000     0.514400000000    -0.0717591  
C263     C      0.122490000000     0.474750000000     0.476620000000    -0.108965   
C264     C      0.122010000000     0.445400000000     0.489640000000     0.0240172  
C265     C      0.153750000000     0.445160000000     0.497860000000    -0.07039    
C266     C      0.186310000000     0.474240000000     0.493040000000     0.0308086  
C267     C      0.186350000000     0.502370000000     0.477420000000    -0.0708747  
C268     C      0.154810000000     0.502590000000     0.469330000000     0.0281201  
C269     C      0.219940000000     0.476850000000     0.506610000000    -0.000672188
C270     C      0.221330000000     0.463040000000     0.534820000000    -0.0368123  
C271     C      0.253490000000     0.468090000000     0.548510000000    -0.0378954  
C272     C      0.284980000000     0.487400000000     0.534430000000    -4.95539e-05
C273     C      0.283570000000     0.500960000000     0.506210000000    -0.0369466  
C274     C      0.251470000000     0.495620000000     0.492430000000    -0.0374853  
C275     C      0.318970000000     0.491050000000     0.547740000000     0.0308631  
C276     C      0.321170000000     0.462530000000     0.559590000000    -0.0691969  
C277     C      0.353920000000     0.463810000000     0.564420000000     0.0279248  
C278     C      0.384920000000     0.493650000000     0.557700000000    -0.10702    
C279     C      0.383020000000     0.523190000000     0.549840000000     0.0250387  
C280     C      0.350190000000     0.521850000000     0.544630000000    -0.0699119  
C281     C      0.973350000000     0.505760000000     0.863540000000    -0.109249   
C282     C      0.973900000000     0.534490000000     0.848590000000     0.0231141  
C283     C      0.970370000000     0.537220000000     0.818670000000    -0.0713152  
C284     C      0.965680000000     0.511090000000     0.803120000000     0.031127   
C285     C      0.964630000000     0.482220000000     0.818050000000    -0.070749   
C286     C      0.968600000000     0.479640000000     0.847890000000     0.0247501  
C287     C      0.962850000000     0.514000000000     0.771380000000    -0.00181023 
C288     C      0.987100000000     0.542910000000     0.755720000000    -0.0337519  
C289     C      0.986930000000     0.543910000000     0.725910000000    -0.0336939  
C290     C      0.962380000000     0.516080000000     0.711240000000    -0.00165013 
C291     C      0.936840000000     0.488010000000     0.726850000000    -0.0372815  
C292     C      0.937190000000     0.486910000000     0.756580000000    -0.0375338  
C293     C      0.965270000000     0.514860000000     0.680340000000     0.0307849  
C294     C      0.973340000000     0.542890000000     0.660550000000    -0.0698241  
C295     C      0.977460000000     0.541480000000     0.631750000000     0.0234061  
C296     C      0.973820000000     0.512060000000     0.622280000000    -0.10713    
C297     C      0.965440000000     0.484070000000     0.642160000000     0.0229682  
C298     C      0.961300000000     0.485480000000     0.670710000000    -0.0707166  
C299     C      0.034390000000     0.495290000000     0.130740000000    -0.109634   
C300     C      0.034440000000     0.467030000000     0.146110000000     0.0211969  
C301     C      0.038030000000     0.464850000000     0.176050000000    -0.0715064  
C302     C      0.042190000000     0.491100000000     0.191180000000     0.0302232  
C303     C      0.042970000000     0.519650000000     0.175800000000    -0.0710988  
C304     C      0.038920000000     0.521650000000     0.145950000000     0.0244166  
C305     C      0.044360000000     0.488470000000     0.222940000000    -0.00231426 
C306     C      0.020040000000     0.459510000000     0.238500000000    -0.0351161  
C307     C      0.019420000000     0.458660000000     0.268220000000    -0.0438899  
C308     C      0.043260000000     0.486710000000     0.282960000000     0.00178499 
C309     C      0.068870000000     0.514910000000     0.267500000000    -0.0390433  
C310     C      0.069280000000     0.515840000000     0.237840000000    -0.0367779  
C311     C      0.039600000000     0.487860000000     0.313750000000     0.027959   
C312     C      0.030950000000     0.459710000000     0.333520000000    -0.0693489  
C313     C      0.025760000000     0.460860000000     0.362100000000     0.0217256  
C314     C      0.028940000000     0.490160000000     0.371440000000    -0.106662   
C315     C      0.038090000000     0.518340000000     0.351640000000     0.0213108  
C316     C      0.043250000000     0.517170000000     0.323280000000    -0.0695665  
C317     C      0.643090000000     0.119010000000     0.945380000000    -0.103507   
C318     C      0.672340000000     0.115250000000     0.941120000000     0.0208826  
C319     C      0.704850000000     0.143390000000     0.934600000000    -0.0691075  
C320     C      0.708590000000     0.175790000000     0.931650000000     0.0287952  
C321     C      0.678990000000     0.179300000000     0.934970000000    -0.0692831  
C322     C      0.646810000000     0.151390000000     0.941840000000     0.0214326  
C323     C      0.743350000000     0.206260000000     0.926720000000    -0.000357583
C324     C      0.773970000000     0.209930000000     0.942840000000    -0.0374769  
C325     C      0.805250000000     0.240710000000     0.941610000000    -0.0372604  
C326     C      0.806590000000     0.268460000000     0.924180000000    -0.000351699
C327     C      0.776670000000     0.263960000000     0.906550000000    -0.0376471  
C328     C      0.745470000000     0.233320000000     0.907850000000    -0.0378341  
C329     C      0.837110000000     0.302750000000     0.927090000000     0.0293661  
C330     C      0.872200000000     0.308740000000     0.930130000000    -0.0690931  
C331     C      0.900050000000     0.340460000000     0.936430000000     0.0228833  
C332     C      0.893090000000     0.366410000000     0.940260000000    -0.105398   
C333     C      0.858310000000     0.360770000000     0.935970000000     0.0244486  
C334     C      0.830770000000     0.329500000000     0.929330000000    -0.0691519  
C335     C      0.111240000000     0.630360000000     0.053880000000    -0.10506    
C336     C      0.145950000000     0.635890000000     0.058600000000     0.0248692  
C337     C      0.173730000000     0.667610000000     0.063810000000    -0.0688791  
C338     C      0.167690000000     0.694900000000     0.064150000000     0.028741   
C339     C      0.132650000000     0.689020000000     0.060910000000    -0.0690891  
C340     C      0.104590000000     0.656920000000     0.056020000000     0.02016    
C341     C      0.198380000000     0.729440000000     0.065150000000    -0.000472263
C342     C      0.228900000000     0.735110000000     0.082430000000    -0.0377506  
C343     C      0.259970000000     0.765720000000     0.079570000000    -0.0378913  
C344     C      0.261380000000     0.791600000000     0.059470000000    -0.000414145
C345     C      0.230250000000     0.786850000000     0.043610000000    -0.0377996  
C346     C      0.199110000000     0.756090000000     0.046380000000    -0.0374395  
C347     C      0.295850000000     0.821920000000     0.053230000000     0.0287648  
C348     C      0.325420000000     0.818290000000     0.050120000000    -0.0694647  
C349     C      0.357420000000     0.846000000000     0.042510000000     0.0205368  
C350     C      0.360980000000     0.878300000000     0.038060000000    -0.104501   
C351     C      0.331680000000     0.882200000000     0.041800000000     0.0224442  
C352     C      0.299340000000     0.854230000000     0.049050000000    -0.0689854  
C353     C      0.626590000000     0.470950000000     0.979200000000    -0.111571   
C354     C      0.623970000000     0.441030000000     0.993100000000     0.0228234  
C355     C      0.654440000000     0.439790000000     0.004370000000    -0.0719605  
C356     C      0.687700000000     0.468480000000     0.001820000000     0.0302495  
C357     C      0.690320000000     0.497030000000     0.985160000000    -0.0722796  
C358     C      0.660060000000     0.498240000000     0.973950000000     0.0274427  
C359     C      0.719220000000     0.470130000000     0.018590000000    -0.00139754 
C360     C      0.727910000000     0.444540000000     0.018880000000    -0.0376583  
C361     C      0.758830000000     0.447460000000     0.033510000000    -0.0373386  
C362     C      0.781470000000     0.475850000000     0.048480000000    -0.000205558
C363     C      0.771750000000     0.500650000000     0.049220000000    -0.038043   
C364     C      0.741060000000     0.497870000000     0.034380000000    -0.0376583  
C365     C      0.816690000000     0.481060000000     0.060370000000     0.0307105  
C366     C      0.821300000000     0.453630000000     0.071750000000    -0.0694805  
C367     C      0.854940000000     0.456760000000     0.075130000000     0.0280715  
C368     C      0.884540000000     0.487450000000     0.067490000000    -0.10734    
C369     C      0.880460000000     0.515900000000     0.060250000000     0.0252745  
C370     C      0.846770000000     0.512720000000     0.056490000000    -0.069464   
C371     C      0.379020000000     0.527130000000     0.005040000000    -0.110691   
C372     C      0.346120000000     0.499630000000     0.011400000000     0.0276919  
C373     C      0.315240000000     0.500930000000     0.002930000000    -0.0720715  
C374     C      0.316480000000     0.529830000000     0.987850000000     0.0314267  
C375     C      0.349600000000     0.558410000000     0.983650000000    -0.0710071  
C376     C      0.380720000000     0.557080000000     0.992260000000     0.0267612  
C377     C      0.283380000000     0.528550000000     0.974410000000    -0.00117319 
C378     C      0.251720000000     0.509980000000     0.988440000000    -0.03731    
C379     C      0.219870000000     0.505260000000     0.974640000000    -0.0374302  
C380     C      0.218840000000     0.519350000000     0.946580000000    -0.000391461
C381     C      0.250490000000     0.538900000000     0.932780000000    -0.0380336  
C382     C      0.282440000000     0.543250000000     0.946470000000    -0.0368612  
C383     C      0.184870000000     0.515540000000     0.933170000000     0.0296964  
C384     C      0.154180000000     0.484210000000     0.935230000000    -0.0707626  
C385     C      0.120980000000     0.482080000000     0.930710000000     0.0200991  
C386     C      0.118150000000     0.511370000000     0.924610000000    -0.107476   
C387     C      0.148710000000     0.541970000000     0.918570000000     0.0269133  
C388     C      0.181880000000     0.544030000000     0.922770000000    -0.0695396  
C389     C      0.612250000000     0.627760000000     0.552670000000    -0.109363   
C390     C      0.608120000000     0.656400000000     0.550240000000     0.0238266  
C391     C      0.637370000000     0.687900000000     0.554770000000    -0.0705073  
C392     C      0.671000000000     0.691010000000     0.561860000000     0.0301425  
C393     C      0.674070000000     0.661730000000     0.566820000000    -0.0719929  
C394     C      0.645130000000     0.630560000000     0.561980000000     0.0266892  
C395     C      0.703450000000     0.724340000000     0.560760000000    -0.00120366 
C396     C      0.705630000000     0.752130000000     0.572260000000    -0.0376182  
C397     C      0.736710000000     0.783190000000     0.570770000000    -0.0379702  
C398     C      0.766110000000     0.786990000000     0.557690000000    -0.000397472
C399     C      0.763380000000     0.759310000000     0.545660000000    -0.0379066  
C400     C      0.732630000000     0.728550000000     0.547190000000    -0.0372889  
C401     C      0.799640000000     0.819440000000     0.555930000000     0.0299635  
C402     C      0.799760000000     0.850170000000     0.548870000000    -0.0694671  
C403     C      0.831420000000     0.879790000000     0.543330000000     0.023157   
C404     C      0.863380000000     0.879070000000     0.544520000000    -0.105445   
C405     C      0.863410000000     0.848770000000     0.553270000000     0.0265126  
C406     C      0.832060000000     0.819450000000     0.559120000000    -0.0705102  
C407     C      0.138670000000     0.122180000000     0.445820000000    -0.10693    
C408     C      0.169580000000     0.120420000000     0.443620000000     0.0240753  
C409     C      0.201400000000     0.149670000000     0.437600000000    -0.0699721  
C410     C      0.202710000000     0.181110000000     0.433260000000     0.0301908  
C411     C      0.171110000000     0.182250000000     0.433350000000    -0.0712269  
C412     C      0.139680000000     0.153320000000     0.439800000000     0.0252833  
C413     C      0.236790000000     0.212980000000     0.430640000000    -0.000865313
C414     C      0.264310000000     0.216220000000     0.415180000000    -0.0374441  
C415     C      0.295830000000     0.246820000000     0.412760000000    -0.038283   
C416     C      0.300210000000     0.274730000000     0.425570000000    -0.000382261
C417     C      0.273020000000     0.271110000000     0.441510000000    -0.0378963  
C418     C      0.241930000000     0.240750000000     0.444110000000    -0.0371232  
C419     C      0.332900000000     0.307710000000     0.423290000000     0.0297835  
C420     C      0.366440000000     0.310360000000     0.429460000000    -0.0698543  
C421     C      0.396140000000     0.341700000000     0.433600000000     0.0235628  
C422     C      0.392510000000     0.370600000000     0.431620000000    -0.107815   
C423     C      0.359640000000     0.368210000000     0.422930000000     0.026621   
C424     C      0.330240000000     0.337180000000     0.418580000000    -0.070254   
C425     C      0.847060000000     0.978930000000     0.464570000000    -0.104337   
C426     C      0.836080000000     0.986110000000     0.436650000000     0.0218694  
C427     C      0.800560000000     0.976080000000     0.429410000000    -0.0696461  
C428     C      0.775100000000     0.958240000000     0.449800000000     0.0291007  
C429     C      0.785990000000     0.951090000000     0.477730000000    -0.0695123  
C430     C      0.821600000000     0.961500000000     0.485090000000     0.0212353  
C431     C      0.737430000000     0.948050000000     0.442230000000    -0.000281694
C432     C      0.727970000000     0.971150000000     0.427450000000    -0.0376051  
C433     C      0.692570000000     0.962690000000     0.422250000000    -0.0366101  
C434     C      0.665580000000     0.930710000000     0.431370000000    -0.00049881 
C435     C      0.675170000000     0.907080000000     0.445040000000    -0.0376231  
C436     C      0.710690000000     0.915740000000     0.450580000000    -0.0381313  
C437     C      0.628280000000     0.923920000000     0.429700000000     0.0305852  
C438     C      0.615980000000     0.939840000000     0.407550000000    -0.0693105  
C439     C      0.585660000000     0.942030000000     0.410470000000     0.0276538  
C440     C      0.566570000000     0.927510000000     0.435140000000    -0.10882    
C441     C      0.575890000000     0.907640000000     0.455270000000     0.0241731  
C442     C      0.606580000000     0.905970000000     0.452690000000    -0.0699652  
C443     C      0.156070000000     0.027850000000     0.523140000000    -0.105417   
C444     C      0.168830000000     0.019700000000     0.549900000000     0.0216404  
C445     C      0.204790000000     0.029860000000     0.555110000000    -0.0691941  
C446     C      0.228960000000     0.049050000000     0.533880000000     0.0292064  
C447     C      0.216040000000     0.057870000000     0.507420000000    -0.0697074  
C448     C      0.180120000000     0.047010000000     0.502020000000     0.0237754  
C449     C      0.267130000000     0.058740000000     0.538710000000    -0.00038854 
C450     C      0.284400000000     0.064980000000     0.566130000000    -0.0373545  
C451     C      0.319520000000     0.071790000000     0.570630000000    -0.0380597  
C452     C      0.338370000000     0.073240000000     0.547710000000    -0.000640671
C453     C      0.321600000000     0.068190000000     0.520220000000    -0.0371782  
C454     C      0.286460000000     0.060760000000     0.515820000000    -0.0374132  
C455     C      0.373600000000     0.075440000000     0.552460000000     0.030211   
C456     C      0.378230000000     0.052340000000     0.572410000000    -0.0697427  
C457     C      0.406580000000     0.046600000000     0.570860000000     0.0268428  
C458     C      0.431050000000     0.064300000000     0.549740000000    -0.108851   
C459     C      0.428990000000     0.090370000000     0.532260000000     0.0241822  
C460     C      0.400290000000     0.095770000000     0.533490000000    -0.0711053  
C461     C      0.013910000000     0.643830000000     0.464530000000    -0.104405   
C462     C      0.031550000000     0.664180000000     0.440370000000     0.019537   
C463     C      0.036660000000     0.696900000000     0.434910000000    -0.0713902  
C464     C      0.023850000000     0.709770000000     0.453290000000     0.0323344  
C465     C      0.006340000000     0.689460000000     0.477420000000    -0.0757835  
C466     C      0.001540000000     0.657010000000     0.483030000000     0.0184516  
C467     C      0.027850000000     0.743940000000     0.447300000000    -0.0106508  
C468     C      0.060310000000     0.771800000000     0.439980000000    -0.0331693  
C469     C      0.064090000000     0.804140000000     0.436180000000    -0.042422   
C470     C      0.035330000000     0.809120000000     0.439190000000     0.00440182 
C471     C      0.002770000000     0.781050000000     0.445900000000    -0.0521896  
C472     C      0.999100000000     0.748970000000     0.449900000000    -0.0228098  
C473     C      0.038960000000     0.843250000000     0.437060000000     0.0279793  
C474     C      0.067540000000     0.869440000000     0.451060000000    -0.069397   
C475     C      0.066760000000     0.898980000000     0.454370000000     0.0213187  
C476     C      0.037350000000     0.902570000000     0.443810000000    -0.107655   
C477     C      0.010460000000     0.877780000000     0.427620000000     0.0229398  
C478     C      0.011390000000     0.848590000000     0.424060000000    -0.0734968  
C479     C      0.961590000000     0.098640000000     0.543050000000    -0.106968   
C480     C      0.987890000000     0.123260000000     0.559740000000     0.0296571  
C481     C      0.986160000000     0.151920000000     0.563780000000    -0.0660016  
C482     C      0.958430000000     0.156990000000     0.550700000000     0.0294507  
C483     C      0.930530000000     0.130980000000     0.536000000000    -0.0688971  
C484     C      0.932070000000     0.101920000000     0.532250000000     0.0244337  
C485     C      0.961270000000     0.190770000000     0.549330000000    -0.000447204
C486     C      0.931870000000     0.194910000000     0.552020000000    -0.0380132  
C487     C      0.934990000000     0.227010000000     0.548870000000    -0.0370677  
C488     C      0.967440000000     0.255460000000     0.542570000000    -0.00233816 
C489     C      0.996810000000     0.251260000000     0.540400000000    -0.0334724  
C490     C      0.993790000000     0.219430000000     0.543710000000    -0.0340605  
C491     C      0.970850000000     0.289440000000     0.536920000000     0.0305215  
C492     C      0.957220000000     0.301640000000     0.555220000000    -0.0707103  
C493     C      0.962290000000     0.334410000000     0.550220000000     0.0211948  
C494     C      0.980700000000     0.355420000000     0.526590000000    -0.106246   
C495     C      0.993680000000     0.342780000000     0.508090000000     0.0269225  
C496     C      0.988900000000     0.310340000000     0.513230000000    -0.0726754  
C497     C      0.959620000000     0.966750000000     0.865450000000    -0.108027   
C498     C      0.950070000000     0.987440000000     0.846410000000     0.0233988  
C499     C      0.945440000000     0.983800000000     0.817040000000    -0.0708163  
C500     C      0.950770000000     0.959730000000     0.806100000000     0.0308385  
C501     C      0.959060000000     0.938240000000     0.825160000000    -0.070612   
C502     C      0.963160000000     0.941530000000     0.854590000000     0.0237622  
C503     C      0.950690000000     0.959040000000     0.774810000000    -0.00154325 
C504     C      0.923200000000     0.959230000000     0.756420000000    -0.0376924  
C505     C      0.924530000000     0.960590000000     0.726730000000    -0.0367489  
C506     C      0.953680000000     0.962360000000     0.714860000000    -0.00194404 
C507     C      0.981050000000     0.962050000000     0.733480000000    -0.0334172  
C508     C      0.979420000000     0.960130000000     0.763070000000    -0.0343419  
C509     C      0.956360000000     0.965560000000     0.683260000000     0.031712   
C510     C      0.943760000000     0.984500000000     0.664930000000    -0.0707148  
C511     C      0.948760000000     0.989440000000     0.635530000000     0.0258291  
C512     C      0.967010000000     0.976080000000     0.624000000000    -0.110192   
C513     C      0.978730000000     0.956450000000     0.642090000000     0.0271552  
C514     C      0.973120000000     0.950930000000     0.671270000000    -0.0714706  
C515     C      0.031540000000     0.019240000000     0.364990000000    -0.109902   
C516     C      0.018880000000     0.037570000000     0.346130000000     0.0233508  
C517     C      0.024210000000     0.041950000000     0.316960000000    -0.0713088  
C518     C      0.041630000000     0.027440000000     0.305780000000     0.0293684  
C519     C      0.055020000000     0.009680000000     0.324850000000    -0.0703818  
C520     C      0.050300000000     0.005910000000     0.354230000000     0.0250362  
C521     C      0.044390000000     0.029720000000     0.274300000000     1.66586e-05
C522     C      0.016760000000     0.028890000000     0.255340000000    -0.0409529  
C523     C      0.018700000000     0.030350000000     0.225850000000    -0.0415159  
C524     C      0.047990000000     0.032060000000     0.214570000000    -0.000186779
C525     C      0.075670000000     0.032870000000     0.233290000000    -0.0382846  
C526     C      0.074040000000     0.031990000000     0.262860000000    -0.0377658  
C527     C      0.048450000000     0.031160000000     0.183410000000     0.0300969  
C528     C      0.040380000000     0.052520000000     0.163980000000    -0.071935   
C529     C      0.037150000000     0.049270000000     0.134590000000     0.0254979  
C530     C      0.041300000000     0.024160000000     0.124180000000    -0.111418   
C531     C      0.050440000000     0.003490000000     0.143630000000     0.0246516  
C532     C      0.054250000000     0.007140000000     0.172960000000    -0.0727977  
C533     C      0.608830000000     0.635000000000     0.040110000000    -0.105104   
C534     C      0.603880000000     0.661540000000     0.026530000000     0.0194349  
C535     C      0.633040000000     0.693100000000     0.020460000000    -0.069203   
C536     C      0.667380000000     0.698360000000     0.027860000000     0.0286427  
C537     C      0.671920000000     0.672960000000     0.044220000000    -0.0706359  
C538     C      0.642940000000     0.641680000000     0.050440000000     0.0237705  
C539     C      0.698370000000     0.728250000000     0.015650000000    -0.000494299
C540     C      0.704910000000     0.760740000000     0.018810000000    -0.038288   
C541     C      0.734890000000     0.788580000000     0.007670000000    -0.0373677  
C542     C      0.758570000000     0.784500000000     0.992610000000    -0.000304814
C543     C      0.751140000000     0.751790000000     0.988790000000    -0.0372792  
C544     C      0.721600000000     0.724070000000     0.000360000000    -0.0387426  
C545     C      0.791600000000     0.814120000000     0.982140000000     0.0296824  
C546     C      0.792550000000     0.844900000000     0.973180000000    -0.0692874  
C547     C      0.824450000000     0.873700000000     0.967210000000     0.0265123  
C548     C      0.856070000000     0.872330000000     0.969420000000    -0.105672   
C549     C      0.854920000000     0.841230000000     0.976130000000     0.0221346  
C550     C      0.823100000000     0.812490000000     0.982660000000    -0.0688557  
C551     C      0.396550000000     0.358780000000     0.950880000000    -0.108689   
C552     C      0.361910000000     0.351160000000     0.941480000000     0.025979   
C553     C      0.333730000000     0.319620000000     0.948400000000    -0.0726732  
C554     C      0.339590000000     0.294900000000     0.964580000000     0.0304901  
C555     C      0.374370000000     0.301150000000     0.971270000000    -0.0703085  
C556     C      0.402780000000     0.333000000000     0.964480000000     0.0245525  
C557     C      0.309350000000     0.264630000000     0.977160000000    -0.00131102 
C558     C      0.286700000000     0.268200000000     0.993680000000    -0.0372468  
C559     C      0.257090000000     0.240140000000     0.004740000000    -0.0384688  
C560     C      0.249010000000     0.207740000000     0.999170000000     9.03562e-05
C561     C      0.272320000000     0.204240000000     0.983130000000    -0.0374179  
C562     C      0.302380000000     0.232410000000     0.972480000000    -0.0378797  
C563     C      0.215530000000     0.177950000000     0.008620000000     0.0300692  
C564     C      0.184420000000     0.180150000000     0.008670000000    -0.0697448  
C565     C      0.152160000000     0.151470000000     0.014120000000     0.0251899  
C566     C      0.150140000000     0.119910000000     0.019150000000    -0.107078   
C567     C      0.181370000000     0.117870000000     0.020800000000     0.0269487  
C568     C      0.213710000000     0.146560000000     0.015870000000    -0.0701332  
C569     C      0.931600000000     0.057810000000     0.056020000000    -0.108353   
C570     C      0.930050000000     0.084910000000     0.039940000000     0.0218016  
C571     C      0.900680000000     0.089370000000     0.040840000000    -0.0711634  
C572     C      0.872810000000     0.067070000000     0.058160000000     0.0301229  
C573     C      0.876790000000     0.042840000000     0.077040000000    -0.0696515  
C574     C      0.905840000000     0.038070000000     0.075790000000     0.0275211  
C575     C      0.837430000000     0.064450000000     0.052560000000    -0.000738757
C576     C      0.822630000000     0.061950000000     0.024390000000    -0.0368418  
C577     C      0.787460000000     0.054150000000     0.018840000000    -0.0380304  
C578     C      0.766150000000     0.049150000000     0.041280000000     2.29607e-05
C579     C      0.781440000000     0.052870000000     0.069450000000    -0.0374674  
C580     C      0.816580000000     0.060100000000     0.075040000000    -0.0376331  
C581     C      0.728030000000     0.039150000000     0.035170000000     0.0290414  
C582     C      0.716590000000     0.050510000000     0.009200000000    -0.0692742  
C583     C      0.680880000000     0.040030000000     0.002760000000     0.0218099  
C584     C      0.655570000000     0.018530000000     0.022350000000    -0.104201   
C585     C      0.666810000000     0.007550000000     0.048540000000     0.0229775  
C586     C      0.702560000000     0.017440000000     0.054750000000    -0.0686469  
C587     C      0.347610000000     0.970280000000     0.962890000000    -0.105924   
C588     C      0.326880000000     0.971550000000     0.982990000000     0.02236    
C589     C      0.290890000000     0.960160000000     0.976890000000    -0.0699073  
C590     C      0.274520000000     0.946800000000     0.950640000000     0.0289013  
C591     C      0.295260000000     0.945350000000     0.930630000000    -0.0695045  
C592     C      0.331330000000     0.957070000000     0.936610000000     0.0214241  
C593     C      0.236290000000     0.935590000000     0.943920000000    -0.000342886
C594     C      0.212100000000     0.920540000000     0.965580000000    -0.037834   
C595     C      0.177210000000     0.913880000000     0.960120000000    -0.0370734  
C596     C      0.165430000000     0.921760000000     0.932750000000    -0.000536414
C597     C      0.188940000000     0.934460000000     0.910580000000    -0.0374929  
C598     C      0.223950000000     0.941480000000     0.916120000000    -0.0375836  
C599     C      0.130990000000     0.921690000000     0.928720000000     0.030189   
C600     C      0.129030000000     0.948750000000     0.912740000000    -0.0697283  
C601     C      0.100890000000     0.954390000000     0.915230000000     0.0274499  
C602     C      0.074070000000     0.933140000000     0.933660000000    -0.109808   
C603     C      0.073560000000     0.903860000000     0.946880000000     0.0246025  
C604     C      0.101850000000     0.898130000000     0.944400000000    -0.07049    
C605     C      0.958740000000     0.844010000000     0.020020000000    -0.111307   
C606     C      0.944690000000     0.823520000000     0.997080000000     0.0263083  
C607     C      0.934300000000     0.789570000000     0.001450000000    -0.0730397  
C608     C      0.937570000000     0.775190000000     0.028890000000     0.0315079  
C609     C      0.950160000000     0.795260000000     0.052100000000    -0.0728623  
C610     C      0.960670000000     0.829390000000     0.047720000000     0.0251034  
C611     C      0.931940000000     0.740550000000     0.032260000000    -0.00149235 
C612     C      0.904770000000     0.715610000000     0.016230000000    -0.0375866  
C613     C      0.904140000000     0.685210000000     0.014750000000    -0.038352   
C614     C      0.930460000000     0.679210000000     0.029500000000    -0.000732341
C615     C      0.956050000000     0.703160000000     0.047180000000    -0.0374501  
C616     C      0.956800000000     0.733540000000     0.048530000000    -0.0368066  
C617     C      0.933830000000     0.649920000000     0.024410000000     0.0301269  
C618     C      0.931620000000     0.641430000000     0.996350000000    -0.0707817  
C619     C      0.940710000000     0.617490000000     0.991120000000     0.0238232  
C620     C      0.952300000000     0.601810000000     0.013870000000    -0.109047   
C621     C      0.952690000000     0.609190000000     0.042040000000     0.0240618  
C622     C      0.943410000000     0.632850000000     0.047240000000    -0.0722491  
C623     C      0.042290000000     0.388670000000     0.982830000000    -0.109903   
C624     C      0.062210000000     0.380060000000     0.004160000000     0.0238823  
C625     C      0.069760000000     0.354640000000     0.000630000000    -0.0723344  
C626     C      0.057300000000     0.337180000000     0.975820000000     0.0308152  
C627     C      0.038470000000     0.346590000000     0.954070000000    -0.0722012  
C628     C      0.031130000000     0.372130000000     0.957500000000     0.0250426  
C629     C      0.061010000000     0.307280000000     0.973730000000    -0.00152459 
C630     C      0.055040000000     0.284100000000     0.997660000000    -0.0374157  
C631     C      0.055370000000     0.254430000000     0.995510000000    -0.0376315  
C632     C      0.061690000000     0.247180000000     0.969390000000    -0.00146958 
C633     C      0.068120000000     0.270440000000     0.945450000000    -0.0382626  
C634     C      0.067890000000     0.300360000000     0.947630000000    -0.0381262  
C635     C      0.059920000000     0.214610000000     0.967460000000     0.0306755  
C636     C      0.074790000000     0.201870000000     0.990020000000    -0.0728282  
C637     C      0.067580000000     0.168820000000     0.991530000000     0.0266557  
C638     C      0.045930000000     0.147850000000     0.970190000000    -0.110833   
C639     C      0.033310000000     0.161280000000     0.946340000000     0.0230096  
C640     C      0.040140000000     0.194490000000     0.945050000000    -0.0717143  
H1       H      0.034060000000     0.998900000000     0.931600000000     0.191856   
H2       H      0.969340000000     0.048800000000     0.987080000000     0.192737   
H3       H      0.939780000000     0.920110000000     0.015530000000     0.197827   
H4       H      0.070580000000     0.018710000000     0.044960000000     0.199294   
H5       H      0.946270000000     0.053240000000     0.936500000000     0.131277   
H6       H      0.883900000000     0.985550000000     0.957010000000     0.20303    
H7       H      0.902520000000     0.940700000000     0.054480000000     0.129231   
H8       H      0.941710000000     0.914100000000     0.078860000000     0.186858   
H9       H      0.044740000000     0.933970000000     0.084180000000     0.138442   
H10      H      0.108800000000     0.976230000000     0.015840000000     0.208312   
H11      H      0.101410000000     0.045540000000     0.932160000000     0.126614   
H12      H      0.067700000000     0.080020000000     0.914070000000     0.194598   
H13      H      0.976190000000     0.916180000000     0.099750000000     0.196955   
H14      H      0.131070000000     0.015070000000     0.026490000000     0.199658   
H15      H      0.034940000000     0.068840000000     0.888650000000     0.201715   
H16      H      0.891880000000     0.013400000000     0.980310000000     0.196315   
H17      H      0.915800000000     0.947250000000     0.479510000000     0.197473   
H18      H      0.032510000000     0.056080000000     0.437830000000     0.193941   
H19      H      0.012250000000     0.042820000000     0.551570000000     0.191602   
H20      H      0.043620000000     0.955500000000     0.510400000000     0.195944   
H21      H      0.982410000000     0.065230000000     0.411080000000     0.13165    
H22      H      0.001830000000     0.107180000000     0.453900000000     0.198621   
H23      H      0.090350000000     0.102370000000     0.533330000000     0.137035   
H24      H      0.074130000000     0.058940000000     0.580420000000     0.187752   
H25      H      0.022040000000     0.934760000000     0.574730000000     0.138425   
H26      H      0.999460000000     0.887550000000     0.525290000000     0.197724   
H27      H      0.929100000000     0.898050000000     0.446800000000     0.134085   
H28      H      0.907380000000     0.938430000000     0.419180000000     0.18885    
H29      H      0.092030000000     0.034690000000     0.593150000000     0.203114   
H30      H      0.965810000000     0.880520000000     0.544130000000     0.200678   
H31      H      0.921010000000     0.967380000000     0.391370000000     0.204492   
H32      H      0.045380000000     0.132680000000     0.456850000000     0.201354   
H33      H      0.969760000000     0.461220000000     0.061820000000     0.191783   
H34      H      0.935390000000     0.465980000000     0.946940000000     0.192416   
H35      H      0.031340000000     0.582160000000     0.993040000000     0.197394   
H36      H      0.068410000000     0.486050000000     0.988280000000     0.193748   
H37      H      0.873590000000     0.447030000000     0.975080000000     0.126117   
H38      H      0.897670000000     0.509240000000     0.951280000000     0.19135    
H39      H      0.023570000000     0.590540000000     0.923650000000     0.139685   
H40      H      0.091410000000     0.619150000000     0.961890000000     0.195505   
H41      H      0.128960000000     0.542210000000     0.011670000000     0.128144   
H42      H      0.103700000000     0.480740000000     0.038580000000     0.186002   
H43      H      0.980490000000     0.409490000000     0.073770000000     0.135888   
H44      H      0.905800000000     0.399070000000     0.058860000000     0.194518   
H45      H      0.093090000000     0.599030000000     0.935390000000     0.199139   
H46      H      0.091970000000     0.471630000000     0.072520000000     0.203355   
H47      H      0.917270000000     0.380810000000     0.036660000000     0.20331    
H48      H      0.914240000000     0.530630000000     0.920260000000     0.201863   
H49      H      0.935190000000     0.480750000000     0.540740000000     0.1924     
H50      H      0.959990000000     0.475290000000     0.430960000000     0.198421   
H51      H      0.054560000000     0.582140000000     0.488490000000     0.197804   
H52      H      0.044560000000     0.460650000000     0.523700000000     0.197121   
H53      H      0.876860000000     0.456480000000     0.434180000000     0.138281   
H54      H      0.953490000000     0.551920000000     0.411860000000     0.208971   
H55      H      0.080950000000     0.593200000000     0.435470000000     0.124692   
H56      H      0.126070000000     0.586110000000     0.475140000000     0.187821   
H57      H      0.090840000000     0.524400000000     0.570340000000     0.144984   
H58      H      0.043770000000     0.447770000000     0.579570000000     0.194715   
H59      H      0.915010000000     0.407620000000     0.554720000000     0.130861   
H60      H      0.868900000000     0.421930000000     0.519760000000     0.187505   
H61      H      0.147430000000     0.578260000000     0.504190000000     0.203806   
H62      H      0.022280000000     0.452770000000     0.604190000000     0.202555   
H63      H      0.849400000000     0.423520000000     0.487430000000     0.196453   
H64      H      0.967880000000     0.536160000000     0.389650000000     0.202618   
H65      H      0.490570000000     0.956890000000     0.935050000000     0.191389   
H66      H      0.468940000000     0.942080000000     0.048760000000     0.192652   
H67      H      0.587680000000     0.049840000000     0.008770000000     0.197207   
H68      H      0.461790000000     0.045380000000     0.977370000000     0.196617   
H69      H      0.471160000000     0.889600000000     0.043570000000     0.130706   
H70      H      0.544240000000     0.931180000000     0.061000000000     0.201589   
H71      H      0.574310000000     0.052090000000     0.075510000000     0.134729   
H72      H      0.594880000000     0.104020000000     0.035510000000     0.187996   
H73      H      0.529210000000     0.104540000000     0.941300000000     0.13994    
H74      H      0.441480000000     0.052890000000     0.921110000000     0.196176   
H75      H      0.416500000000     0.943040000000     0.914740000000     0.131926   
H76      H      0.429100000000     0.895220000000     0.939210000000     0.186775   
H77      H      0.580310000000     0.130880000000     0.022580000000     0.204042   
H78      H      0.476760000000     0.063730000000     0.902750000000     0.198809   
H79      H      0.411630000000     0.867040000000     0.967000000000     0.204179   
H80      H      0.539470000000     0.943730000000     0.091250000000     0.200402   
H81      H      0.429780000000     0.971270000000     0.443440000000     0.196605   
H82      H      0.469310000000     0.995540000000     0.555790000000     0.191876   
H83      H      0.530950000000     0.941550000000     0.501900000000     0.19854    
H84      H      0.561860000000     0.070150000000     0.469810000000     0.197473   
H85      H      0.402790000000     0.950190000000     0.557170000000     0.125609   
H86      H      0.436200000000     0.916460000000     0.577270000000     0.193223   
H87      H      0.568360000000     0.965860000000     0.565640000000     0.140967   
H88      H      0.605050000000     0.974000000000     0.511070000000     0.196815   
H89      H      0.594850000000     0.041580000000     0.429380000000     0.133913   
H90      H      0.561420000000     0.076130000000     0.410350000000     0.187743   
H91      H      0.440260000000     0.049140000000     0.433880000000     0.140322   
H92      H      0.373870000000     0.978390000000     0.458670000000     0.195671   
H93      H      0.624330000000     0.010780000000     0.525520000000     0.200888   
H94      H      0.527770000000     0.068010000000     0.386110000000     0.20431    
H95      H      0.389310000000     0.013680000000     0.474910000000     0.200243   
H96      H      0.470430000000     0.923870000000     0.600710000000     0.202931   
H97      H      0.437740000000     0.479180000000     0.035330000000     0.191938   
H98      H      0.465030000000     0.472040000000     0.926770000000     0.199104   
H99      H      0.557630000000     0.580230000000     0.983480000000     0.197177   
H100     H      0.548200000000     0.459560000000     0.021570000000     0.190616   
H101     H      0.380660000000     0.452500000000     0.929180000000     0.138836   
H102     H      0.456700000000     0.546560000000     0.906200000000     0.208212   
H103     H      0.584810000000     0.592100000000     0.931960000000     0.124484   
H104     H      0.650720000000     0.577190000000     0.000630000000     0.201633   
H105     H      0.605530000000     0.500570000000     0.049800000000     0.131802   
H106     H      0.547110000000     0.448830000000     0.077790000000     0.191253   
H107     H      0.418200000000     0.405370000000     0.049810000000     0.132229   
H108     H      0.372630000000     0.420170000000     0.014850000000     0.187124   
H109     H      0.629420000000     0.583120000000     0.970630000000     0.187573   
H110     H      0.522290000000     0.450160000000     0.101690000000     0.205333   
H111     H      0.353480000000     0.420150000000     0.982090000000     0.196325   
H112     H      0.474930000000     0.534880000000     0.883660000000     0.20223    
H113     H      0.465400000000     0.459970000000     0.555280000000     0.195874   
H114     H      0.439460000000     0.472060000000     0.439490000000     0.191786   
H115     H      0.538920000000     0.582870000000     0.491050000000     0.196182   
H116     H      0.567020000000     0.480570000000     0.485410000000     0.198913   
H117     H      0.377640000000     0.458220000000     0.465520000000     0.124888   
H118     H      0.407420000000     0.518540000000     0.438780000000     0.187149   
H119     H      0.542580000000     0.597070000000     0.429930000000     0.132254   
H120     H      0.615060000000     0.611340000000     0.452470000000     0.192036   
H121     H      0.629980000000     0.542460000000     0.521970000000     0.139368   
H122     H      0.596920000000     0.470180000000     0.536670000000     0.196174   
H123     H      0.470630000000     0.390900000000     0.546180000000     0.13939    
H124     H      0.402040000000     0.402570000000     0.550390000000     0.194771   
H125     H      0.644840000000     0.604910000000     0.473760000000     0.200748   
H126     H      0.583330000000     0.460490000000     0.570060000000     0.20422    
H127     H      0.404900000000     0.380940000000     0.525740000000     0.199072   
H128     H      0.430350000000     0.550010000000     0.414670000000     0.202301   
H129     H      0.521710000000     0.438700000000     0.630620000000     0.0338029  
H130     H      0.529090000000     0.434550000000     0.682900000000     0.0464572  
H131     H      0.544890000000     0.534730000000     0.683590000000     0.0474159  
H132     H      0.537440000000     0.538990000000     0.631520000000     0.0359213  
H133     H      0.494740000000     0.433060000000     0.724380000000     0.037993   
H134     H      0.496410000000     0.432070000000     0.776450000000     0.037556   
H135     H      0.590710000000     0.528550000000     0.773700000000     0.0379289  
H136     H      0.588360000000     0.529810000000     0.721700000000     0.0381511  
H137     H      0.525930000000     0.430050000000     0.823100000000     0.0464713  
H138     H      0.518760000000     0.433150000000     0.873240000000     0.034358   
H139     H      0.550210000000     0.538300000000     0.855230000000     0.0364799  
H140     H      0.556290000000     0.534920000000     0.805690000000     0.0464974  
H141     H      0.490100000000     0.565380000000     0.111400000000     0.0357838  
H142     H      0.483930000000     0.569360000000     0.161610000000     0.0470298  
H143     H      0.456300000000     0.465300000000     0.180540000000     0.0465355  
H144     H      0.461610000000     0.461050000000     0.131000000000     0.0337215  
H145     H      0.514460000000     0.568170000000     0.208730000000     0.0385422  
H146     H      0.515760000000     0.567520000000     0.260810000000     0.0387241  
H147     H      0.421990000000     0.470860000000     0.263450000000     0.0378323  
H148     H      0.420210000000     0.471700000000     0.211540000000     0.0376655  
H149     H      0.481970000000     0.566300000000     0.302450000000     0.0465902  
H150     H      0.488540000000     0.561660000000     0.354800000000     0.0329385  
H151     H      0.471090000000     0.460810000000     0.353560000000     0.0356067  
H152     H      0.464570000000     0.465590000000     0.301540000000     0.047659   
H153     H      0.428330000000     0.599600000000     0.469630000000     0.0311729  
H154     H      0.411130000000     0.641020000000     0.476910000000     0.0458721  
H155     H      0.473240000000     0.661380000000     0.557140000000     0.0471747  
H156     H      0.489700000000     0.619560000000     0.550340000000     0.0357194  
H157     H      0.445360000000     0.701470000000     0.474990000000     0.0381613  
H158     H      0.443930000000     0.752640000000     0.478650000000     0.0388902  
H159     H      0.424900000000     0.725720000000     0.568680000000     0.0372554  
H160     H      0.426370000000     0.673710000000     0.564970000000     0.0374089  
H161     H      0.404540000000     0.772950000000     0.486310000000     0.0468283  
H162     H      0.420010000000     0.831240000000     0.481830000000     0.0352775  
H163     H      0.481980000000     0.845790000000     0.562070000000     0.0330965  
H164     H      0.468600000000     0.787140000000     0.565360000000     0.0465463  
H165     H      0.573620000000     0.162590000000     0.499960000000     0.0325989  
H166     H      0.582790000000     0.219570000000     0.492340000000     0.0476455  
H167     H      0.512720000000     0.193690000000     0.416540000000     0.0470294  
H168     H      0.503670000000     0.136560000000     0.423850000000     0.0317887  
H169     H      0.491030000000     0.218770000000     0.451680000000     0.0379109  
H170     H      0.489500000000     0.269770000000     0.458600000000     0.038724   
H171     H      0.603100000000     0.324990000000     0.462450000000     0.0376927  
H172     H      0.604810000000     0.273580000000     0.456000000000     0.0369627  
H173     H      0.522630000000     0.308000000000     0.509020000000     0.0482921  
H174     H      0.514540000000     0.354930000000     0.518330000000     0.0307712  
H175     H      0.557050000000     0.405440000000     0.436800000000     0.0333347  
H176     H      0.565780000000     0.358750000000     0.427990000000     0.0486225  
H177     H      0.564510000000     0.994020000000     0.865360000000     0.0327186  
H178     H      0.572400000000     0.001290000000     0.813990000000     0.0464944  
H179     H      0.520560000000     0.061820000000     0.802000000000     0.046121   
H180     H      0.511090000000     0.052900000000     0.852860000000     0.0274637  
H181     H      0.600170000000     0.036600000000     0.773660000000     0.0377058  
H182     H      0.602000000000     0.037990000000     0.721860000000     0.0381908  
H183     H      0.501450000000     0.035640000000     0.709920000000     0.0378137  
H184     H      0.498580000000     0.032700000000     0.761400000000     0.0376629  
H185     H      0.564300000000     0.995580000000     0.684470000000     0.0465402  
H186     H      0.556920000000     0.988820000000     0.633240000000     0.0303337  
H187     H      0.531410000000     0.069290000000     0.617450000000     0.0338137  
H188     H      0.538590000000     0.075790000000     0.668850000000     0.0472698  
H189     H      0.504830000000     0.956680000000     0.135440000000     0.0259628  
H190     H      0.493620000000     0.948160000000     0.186130000000     0.0466154  
H191     H      0.423480000000     0.990090000000     0.168580000000     0.0474037  
H192     H      0.434420000000     0.998450000000     0.117560000000     0.0348684  
H193     H      0.442090000000     0.913480000000     0.219120000000     0.037698   
H194     H      0.437630000000     0.909150000000     0.270840000000     0.0374407  
H195     H      0.460080000000     0.012310000000     0.265050000000     0.0372368  
H196     H      0.462920000000     0.015850000000     0.213480000000     0.0383692  
H197     H      0.472390000000     0.926740000000     0.313370000000     0.0463495  
H198     H      0.477990000000     0.929640000000     0.365180000000     0.0334129  
H199     H      0.432090000000     0.994930000000     0.355230000000     0.0312308  
H200     H      0.424540000000     0.990680000000     0.303790000000     0.0459217  
H201     H      0.485780000000     0.637460000000     0.992970000000     0.0366445  
H202     H      0.494010000000     0.693840000000     0.983500000000     0.0470822  
H203     H      0.554890000000     0.710470000000     0.911130000000     0.0464407  
H204     H      0.546860000000     0.653530000000     0.920720000000     0.0343253  
H205     H      0.474140000000     0.724520000000     0.945960000000     0.0378874  
H206     H      0.480910000000     0.780440000000     0.941660000000     0.0385056  
H207     H      0.591990000000     0.822740000000     0.929720000000     0.0376083  
H208     H      0.585190000000     0.766110000000     0.934830000000     0.0376399  
H209     H      0.589740000000     0.861360000000     0.960630000000     0.047042   
H210     H      0.588320000000     0.912510000000     0.968110000000     0.0304416  
H211     H      0.490560000000     0.878500000000     0.917070000000     0.0226979  
H212     H      0.492440000000     0.828250000000     0.908600000000     0.0460564  
H213     H      0.517640000000     0.120520000000     0.067700000000     0.0270392  
H214     H      0.514960000000     0.170550000000     0.075430000000     0.0458461  
H215     H      0.414550000000     0.133050000000     0.027490000000     0.0459048  
H216     H      0.416820000000     0.082120000000     0.020800000000     0.0268071  
H217     H      0.413180000000     0.172800000000     0.057450000000     0.0372255  
H218     H      0.418440000000     0.228870000000     0.051330000000     0.0374813  
H219     H      0.528730000000     0.272060000000     0.036270000000     0.0374051  
H220     H      0.523430000000     0.216710000000     0.041520000000     0.0377719  
H221     H      0.448860000000     0.285600000000     0.073330000000     0.0463185  
H222     H      0.456500000000     0.342390000000     0.063470000000     0.0348831  
H223     H      0.514260000000     0.356990000000     0.989390000000     0.0362862  
H224     H      0.506360000000     0.300800000000     0.999120000000     0.0467915  
H225     H      0.850580000000     0.375190000000     0.435870000000     0.0233878  
H226     H      0.802100000000     0.319050000000     0.443290000000     0.0447712  
H227     H      0.875390000000     0.283550000000     0.476100000000     0.0473295  
H228     H      0.924230000000     0.340770000000     0.469630000000     0.0369899  
H229     H      0.769140000000     0.263570000000     0.433270000000     0.0368073  
H230     H      0.716940000000     0.214540000000     0.451720000000     0.0383309  
H231     H      0.778180000000     0.204600000000     0.526760000000     0.038011   
H232     H      0.830370000000     0.254870000000     0.509210000000     0.0375887  
H233     H      0.680350000000     0.202410000000     0.497660000000     0.0462034  
H234     H      0.624800000000     0.152000000000     0.508910000000     0.031392   
H235     H      0.678290000000     0.093180000000     0.519280000000     0.0289028  
H236     H      0.733950000000     0.143770000000     0.508580000000     0.0476814  
H237     H      0.371840000000     0.837660000000     0.481190000000     0.032065   
H238     H      0.316450000000     0.788460000000     0.494770000000     0.0471493  
H239     H      0.264020000000     0.848170000000     0.480230000000     0.0475522  
H240     H      0.319640000000     0.897460000000     0.467110000000     0.026727   
H241     H      0.282380000000     0.780410000000     0.540790000000     0.0393029  
H242     H      0.230600000000     0.733630000000     0.562200000000     0.0371805  
H243     H      0.166470000000     0.738600000000     0.486970000000     0.0369801  
H244     H      0.218260000000     0.786560000000     0.466390000000     0.0375849  
H245     H      0.195490000000     0.677220000000     0.555430000000     0.045493   
H246     H      0.146280000000     0.621690000000     0.563940000000     0.0293993  
H247     H      0.074050000000     0.657530000000     0.529230000000     0.0345942  
H248     H      0.123540000000     0.714020000000     0.521770000000     0.0463219  
H249     H      0.644770000000     0.574200000000     0.427470000000     0.0260102  
H250     H      0.703420000000     0.583950000000     0.446010000000     0.0443597  
H251     H      0.662470000000     0.477410000000     0.464420000000     0.0456797  
H252     H      0.604120000000     0.467610000000     0.446190000000     0.0288922  
H253     H      0.752990000000     0.571680000000     0.437120000000     0.0378308  
H254     H      0.808530000000     0.575550000000     0.458080000000     0.0381489  
H255     H      0.754220000000     0.508770000000     0.530400000000     0.0367554  
H256     H      0.698790000000     0.504440000000     0.509130000000     0.0373663  
H257     H      0.855260000000     0.591840000000     0.497150000000     0.0464597  
H258     H      0.907310000000     0.583860000000     0.504940000000     0.03189    
H259     H      0.839850000000     0.477840000000     0.523850000000     0.0254815  
H260     H      0.788360000000     0.485490000000     0.515930000000     0.0456191  
H261     H      0.097420000000     0.423780000000     0.495850000000     0.0269003  
H262     H      0.152810000000     0.422830000000     0.509320000000     0.045669   
H263     H      0.210750000000     0.525290000000     0.473420000000     0.0460492  
H264     H      0.155800000000     0.525640000000     0.459540000000     0.0283347  
H265     H      0.197710000000     0.449000000000     0.546630000000     0.0376069  
H266     H      0.253800000000     0.457190000000     0.570210000000     0.037595   
H267     H      0.307270000000     0.515110000000     0.494470000000     0.0381988  
H268     H      0.251390000000     0.506200000000     0.470590000000     0.0369811  
H269     H      0.297600000000     0.438490000000     0.562290000000     0.0475793  
H270     H      0.354750000000     0.440650000000     0.570330000000     0.0249817  
H271     H      0.406460000000     0.546450000000     0.544270000000     0.0361612  
H272     H      0.349200000000     0.544350000000     0.535990000000     0.0475148  
H273     H      0.977640000000     0.555130000000     0.859970000000     0.0313082  
H274     H      0.971140000000     0.559690000000     0.807680000000     0.0470501  
H275     H      0.961470000000     0.461840000000     0.806590000000     0.047906   
H276     H      0.967930000000     0.457130000000     0.858670000000     0.03513    
H277     H      0.007260000000     0.564100000000     0.766630000000     0.03426    
H278     H      0.007100000000     0.565810000000     0.714560000000     0.0341429  
H279     H      0.917060000000     0.466440000000     0.716140000000     0.0377008  
H280     H      0.917770000000     0.464580000000     0.768080000000     0.0378154  
H281     H      0.976420000000     0.565860000000     0.667320000000     0.0475632  
H282     H      0.983880000000     0.563500000000     0.617040000000     0.0358594  
H283     H      0.962380000000     0.460910000000     0.635850000000     0.0339067  
H284     H      0.955810000000     0.463630000000     0.685420000000     0.0468077  
H285     H      0.030880000000     0.446220000000     0.135070000000     0.0297633  
H286     H      0.037510000000     0.442640000000     0.187380000000     0.0459374  
H287     H      0.045760000000     0.540120000000     0.186910000000     0.0471628  
H288     H      0.039140000000     0.543830000000     0.134820000000     0.035132   
H289     H      0.000380000000     0.438100000000     0.227530000000     0.0361401  
H290     H      0.999180000000     0.436650000000     0.279390000000     0.0424954  
H291     H      0.088140000000     0.536660000000     0.278260000000     0.0382175  
H292     H      0.088740000000     0.538260000000     0.226450000000     0.0377177  
H293     H      0.028160000000     0.436790000000     0.326890000000     0.0457712  
H294     H      0.018810000000     0.438700000000     0.376730000000     0.0344549  
H295     H      0.040830000000     0.541420000000     0.357850000000     0.0357954  
H296     H      0.049190000000     0.539130000000     0.308600000000     0.046008   
H297     H      0.670430000000     0.090710000000     0.943670000000     0.0328325  
H298     H      0.727110000000     0.139830000000     0.932050000000     0.045724   
H299     H      0.680970000000     0.203860000000     0.933230000000     0.0462694  
H300     H      0.624900000000     0.155320000000     0.944820000000     0.0331403  
H301     H      0.773210000000     0.189640000000     0.957700000000     0.0378491  
H302     H      0.827680000000     0.243320000000     0.955640000000     0.0383955  
H303     H      0.776950000000     0.284590000000     0.892460000000     0.0374592  
H304     H      0.722590000000     0.231140000000     0.894700000000     0.0379052  
H305     H      0.877990000000     0.288710000000     0.928400000000     0.0466092  
H306     H      0.926590000000     0.344070000000     0.939960000000     0.0316397  
H307     H      0.852190000000     0.380300000000     0.938930000000     0.0294511  
H308     H      0.804180000000     0.325840000000     0.927550000000     0.0469543  
H309     H      0.151850000000     0.615910000000     0.056870000000     0.0345607  
H310     H      0.200250000000     0.671090000000     0.065820000000     0.0473551  
H311     H      0.127040000000     0.709440000000     0.061250000000     0.0451374  
H312     H      0.078120000000     0.653420000000     0.052070000000     0.0282494  
H313     H      0.229130000000     0.715420000000     0.097530000000     0.0375949  
H314     H      0.283280000000     0.768780000000     0.092540000000     0.0377111  
H315     H      0.230460000000     0.806210000000     0.027840000000     0.0378982  
H316     H      0.176240000000     0.752580000000     0.032560000000     0.0372571  
H317     H      0.323590000000     0.793760000000     0.052760000000     0.0460628  
H318     H      0.379390000000     0.842020000000     0.039910000000     0.0298967  
H319     H      0.333450000000     0.906690000000     0.038340000000     0.0356347  
H320     H      0.277070000000     0.857870000000     0.051340000000     0.0461449  
H321     H      0.598430000000     0.419840000000     0.997810000000     0.0268909  
H322     H      0.651750000000     0.417380000000     0.016990000000     0.0458637  
H323     H      0.715700000000     0.519190000000     0.982250000000     0.046366   
H324     H      0.662710000000     0.521620000000     0.963340000000     0.0277632  
H325     H      0.711520000000     0.422910000000     0.006920000000     0.0379932  
H326     H      0.765710000000     0.428110000000     0.031950000000     0.0399531  
H327     H      0.788190000000     0.522550000000     0.060850000000     0.0373263  
H328     H      0.734490000000     0.517600000000     0.035100000000     0.0375347  
H329     H      0.798780000000     0.429130000000     0.075870000000     0.0467783  
H330     H      0.857440000000     0.434430000000     0.080830000000     0.0247726  
H331     H      0.902740000000     0.539690000000     0.053890000000     0.0346192  
H332     H      0.844370000000     0.534480000000     0.047780000000     0.0471309  
H333     H      0.344200000000     0.476130000000     0.020960000000     0.0235904  
H334     H      0.290390000000     0.478310000000     0.006360000000     0.0452823  
H335     H      0.351470000000     0.581260000000     0.972540000000     0.0465154  
H336     H      0.405830000000     0.578440000000     0.986760000000     0.0299756  
H337     H      0.251460000000     0.498870000000     0.010130000000     0.0362626  
H338     H      0.196020000000     0.490980000000     0.986170000000     0.0364594  
H339     H      0.250420000000     0.550330000000     0.911250000000     0.0377761  
H340     H      0.306210000000     0.557300000000     0.934840000000     0.0377827  
H341     H      0.155860000000     0.461770000000     0.942740000000     0.0463287  
H342     H      0.097970000000     0.458170000000     0.935660000000     0.0331973  
H343     H      0.147220000000     0.564920000000     0.913820000000     0.0288237  
H344     H      0.205110000000     0.568450000000     0.920830000000     0.0479166  
H345     H      0.583050000000     0.654840000000     0.542670000000     0.0263198  
H346     H      0.634130000000     0.709950000000     0.550750000000     0.0461901  
H347     H      0.699370000000     0.663110000000     0.572970000000     0.0460846  
H348     H      0.648910000000     0.608790000000     0.563930000000     0.0232335  
H349     H      0.683550000000     0.749740000000     0.582750000000     0.0375246  
H350     H      0.737910000000     0.804010000000     0.580230000000     0.0376261  
H351     H      0.784950000000     0.761480000000     0.534580000000     0.038351   
H352     H      0.731560000000     0.708060000000     0.537250000000     0.037048   
H353     H      0.775280000000     0.851060000000     0.546180000000     0.0455906  
H354     H      0.830590000000     0.902790000000     0.536560000000     0.0311678  
H355     H      0.887690000000     0.847510000000     0.554850000000     0.0275632  
H356     H      0.833140000000     0.796480000000     0.565340000000     0.0465061  
H357     H      0.169560000000     0.096760000000     0.447880000000     0.031801   
H358     H      0.225180000000     0.147790000000     0.437650000000     0.0456373  
H359     H      0.170760000000     0.205780000000     0.429130000000     0.0457923  
H360     H      0.116190000000     0.155490000000     0.440650000000     0.0246232  
H361     H      0.261280000000     0.195340000000     0.404560000000     0.0371803  
H362     H      0.316440000000     0.248840000000     0.400480000000     0.0377382  
H363     H      0.275950000000     0.291780000000     0.452410000000     0.0394941  
H364     H      0.221990000000     0.239030000000     0.457030000000     0.0382363  
H365     H      0.369270000000     0.288070000000     0.433240000000     0.0462781  
H366     H      0.421180000000     0.342920000000     0.440690000000     0.0300586  
H367     H      0.356220000000     0.390160000000     0.421320000000     0.0266385  
H368     H      0.304910000000     0.336030000000     0.413250000000     0.0473484  
H369     H      0.854940000000     0.999410000000     0.420290000000     0.0360853  
H370     H      0.792920000000     0.981870000000     0.407710000000     0.0467556  
H371     H      0.767000000000     0.937750000000     0.493990000000     0.0460703  
H372     H      0.829040000000     0.955300000000     0.506730000000     0.0344522  
H373     H      0.747980000000     0.996340000000     0.421000000000     0.0389504  
H374     H      0.686570000000     0.981970000000     0.412320000000     0.0394988  
H375     H      0.655260000000     0.882080000000     0.452020000000     0.0369796  
H376     H      0.717260000000     0.897250000000     0.461630000000     0.0375666  
H377     H      0.631310000000     0.953010000000     0.389060000000     0.0466423  
H378     H      0.579230000000     0.957920000000     0.394890000000     0.0255762  
H379     H      0.561990000000     0.896880000000     0.474810000000     0.021661   
H380     H      0.614970000000     0.893470000000     0.470250000000     0.0452072  
H381     H      0.150940000000     0.004930000000     0.566640000000     0.0315463  
H382     H      0.213400000000     0.022010000000     0.575600000000     0.0454585  
H383     H      0.233630000000     0.073340000000     0.490720000000     0.0452041  
H384     H      0.171270000000     0.054110000000     0.481310000000     0.0348999  
H385     H      0.270780000000     0.064320000000     0.584240000000     0.0368805  
H386     H      0.331810000000     0.075450000000     0.592080000000     0.0375811  
H387     H      0.335130000000     0.068250000000     0.502260000000     0.037199   
H388     H      0.274190000000     0.055320000000     0.494520000000     0.0369798  
H389     H      0.358020000000     0.036200000000     0.587140000000     0.0476119  
H390     H      0.407320000000     0.025940000000     0.584180000000     0.0239221  
H391     H      0.447150000000     0.103860000000     0.515430000000     0.0285473  
H392     H      0.397430000000     0.113890000000     0.517990000000     0.0459338  
H393     H      0.041660000000     0.654950000000     0.425780000000     0.0346559  
H394     H      0.050110000000     0.711930000000     0.416070000000     0.0464415  
H395     H      0.996520000000     0.698780000000     0.492180000000     0.0502718  
H396     H      0.987900000000     0.642200000000     0.501870000000     0.0392226  
H397     H      0.082990000000     0.768680000000     0.437980000000     0.0355693  
H398     H      0.089490000000     0.825230000000     0.431000000000     0.0382419  
H399     H      0.980180000000     0.783920000000     0.448900000000     0.0444853  
H400     H      0.973680000000     0.728010000000     0.455250000000     0.0349856  
H401     H      0.089150000000     0.866100000000     0.461360000000     0.0456001  
H402     H      0.087580000000     0.917580000000     0.467280000000     0.0270575  
H403     H      0.987500000000     0.880020000000     0.419270000000     0.0324031  
H404     H      0.989400000000     0.829290000000     0.412540000000     0.0502974  
H405     H      0.010910000000     0.121230000000     0.568280000000     0.0239707  
H406     H      0.007640000000     0.171040000000     0.575820000000     0.0433694  
H407     H      0.908830000000     0.134110000000     0.525600000000     0.0469163  
H408     H      0.911720000000     0.083430000000     0.518980000000     0.0308935  
H409     H      0.906480000000     0.173360000000     0.556390000000     0.0377019  
H410     H      0.911860000000     0.229510000000     0.550530000000     0.0369486  
H411     H      0.022240000000     0.272680000000     0.535830000000     0.0339409  
H412     H      0.016880000000     0.217270000000     0.540980000000     0.0354212  
H413     H      0.943270000000     0.286100000000     0.573700000000     0.0468286  
H414     H      0.951680000000     0.343200000000     0.564770000000     0.0352785  
H415     H      0.007880000000     0.358040000000     0.489620000000     0.0314841  
H416     H      0.999310000000     0.301530000000     0.498510000000     0.0485322  
H417     H      0.946920000000     0.006980000000     0.854130000000     0.0345989  
H418     H      0.939260000000     0.000810000000     0.802760000000     0.0472662  
H419     H      0.963110000000     0.919360000000     0.817210000000     0.0480984  
H420     H      0.970570000000     0.925230000000     0.868670000000     0.0349376  
H421     H      0.900690000000     0.958280000000     0.765020000000     0.0385121  
H422     H      0.902710000000     0.960260000000     0.713150000000     0.0377525  
H423     H      0.004360000000     0.964230000000     0.725270000000     0.0332569  
H424     H      0.001280000000     0.960660000000     0.776760000000     0.0340325  
H425     H      0.931100000000     0.996500000000     0.673350000000     0.0469602  
H426     H      0.939540000000     0.004770000000     0.622040000000     0.0321227  
H427     H      0.992350000000     0.945330000000     0.633670000000     0.03087    
H428     H      0.982270000000     0.935380000000     0.684460000000     0.0472524  
H429     H      0.004860000000     0.048660000000     0.353960000000     0.0260461  
H430     H      0.014440000000     0.056630000000     0.303180000000     0.0449631  
H431     H      0.068200000000     0.997800000000     0.317050000000     0.0463116  
H432     H      0.060250000000     0.991590000000     0.368360000000     0.0336849  
H433     H      0.993090000000     0.026270000000     0.263230000000     0.0409815  
H434     H      0.996720000000     0.029070000000     0.211860000000     0.0420668  
H435     H      0.098600000000     0.034280000000     0.225010000000     0.0377758  
H436     H      0.096050000000     0.033190000000     0.276710000000     0.0374041  
H437     H      0.035940000000     0.071330000000     0.171590000000     0.0471454  
H438     H      0.030020000000     0.065510000000     0.120150000000     0.0345777  
H439     H      0.054030000000     0.984060000000     0.136230000000     0.0255264  
H440     H      0.060260000000     0.990240000000     0.187570000000     0.0457166  
H441     H      0.578000000000     0.657100000000     0.018000000000     0.0349561  
H442     H      0.628900000000     0.712390000000     0.007910000000     0.0470804  
H443     H      0.698110000000     0.676640000000     0.050610000000     0.046659   
H444     H      0.647560000000     0.621770000000     0.061060000000     0.0328881  
H445     H      0.687360000000     0.764570000000     0.030500000000     0.0387054  
H446     H      0.739880000000     0.813250000000     0.011580000000     0.0384634  
H447     H      0.768110000000     0.747460000000     0.976820000000     0.0365949  
H448     H      0.716720000000     0.699210000000     0.997120000000     0.0372568  
H449     H      0.768820000000     0.847070000000     0.971650000000     0.0465647  
H450     H      0.824610000000     0.897390000000     0.962030000000     0.030036   
H451     H      0.878980000000     0.839540000000     0.978510000000     0.0323506  
H452     H      0.823730000000     0.789470000000     0.989720000000     0.0456453  
H453     H      0.356340000000     0.370510000000     0.930900000000     0.0230936  
H454     H      0.307150000000     0.315160000000     0.942610000000     0.0461468  
H455     H      0.379470000000     0.282360000000     0.983710000000     0.0482571  
H456     H      0.429130000000     0.338260000000     0.972290000000     0.0369019  
H457     H      0.291930000000     0.292860000000     0.998000000000     0.0374335  
H458     H      0.240430000000     0.243960000000     0.017530000000     0.0368383  
H459     H      0.266840000000     0.179830000000     0.977930000000     0.0384407  
H460     H      0.319500000000     0.229090000000     0.959790000000     0.0383724  
H461     H      0.184460000000     0.203690000000     0.002890000000     0.0459235  
H462     H      0.128500000000     0.153700000000     0.012260000000     0.0320221  
H463     H      0.180590000000     0.093800000000     0.024760000000     0.0257429  
H464     H      0.237110000000     0.143890000000     0.016900000000     0.0460189  
H465     H      0.949260000000     0.100070000000     0.024170000000     0.0255662  
H466     H      0.898370000000     0.108430000000     0.026240000000     0.046089   
H467     H      0.855730000000     0.025220000000     0.090520000000     0.048166   
H468     H      0.906240000000     0.016680000000     0.088050000000     0.0290234  
H469     H      0.837730000000     0.064300000000     0.006660000000     0.0365229  
H470     H      0.776760000000     0.050790000000     0.996950000000     0.0374802  
H471     H      0.766230000000     0.049910000000     0.087280000000     0.0377226  
H472     H      0.827320000000     0.061780000000     0.096980000000     0.038042   
H473     H      0.735220000000     0.067880000000     0.993820000000     0.0451757  
H474     H      0.673200000000     0.049500000000     0.982640000000     0.0335265  
H475     H      0.647910000000     0.990990000000     0.064090000000     0.0327312  
H476     H      0.710060000000     0.007600000000     0.074740000000     0.0461304  
H477     H      0.338490000000     0.981600000000     0.003430000000     0.0337082  
H478     H      0.276050000000     0.962400000000     0.992630000000     0.0458917  
H479     H      0.283600000000     0.934820000000     0.910380000000     0.0459302  
H480     H      0.346310000000     0.955260000000     0.920720000000     0.0352035  
H481     H      0.220330000000     0.914790000000     0.987070000000     0.0368259  
H482     H      0.160150000000     0.904370000000     0.977870000000     0.0372204  
H483     H      0.180710000000     0.940340000000     0.889120000000     0.0367644  
H484     H      0.241680000000     0.953060000000     0.898830000000     0.0371942  
H485     H      0.150830000000     0.967590000000     0.900550000000     0.0470896  
H486     H      0.102000000000     0.977360000000     0.905090000000     0.024802   
H487     H      0.053360000000     0.887340000000     0.961500000000     0.0296515  
H488     H      0.102100000000     0.876610000000     0.956470000000     0.0458314  
H489     H      0.942410000000     0.833750000000     0.975460000000     0.0365561  
H490     H      0.925270000000     0.774970000000     0.983020000000     0.04763    
H491     H      0.952650000000     0.784730000000     0.073540000000     0.046019   
H492     H      0.970910000000     0.844360000000     0.065930000000     0.0297741  
H493     H      0.884900000000     0.720160000000     0.003850000000     0.0362614  
H494     H      0.883820000000     0.666900000000     0.001320000000     0.0366798  
H495     H      0.976940000000     0.699390000000     0.058540000000     0.0386036  
H496     H      0.978350000000     0.752360000000     0.060760000000     0.0380394  
H497     H      0.924610000000     0.654490000000     0.978310000000     0.0469821  
H498     H      0.939890000000     0.612230000000     0.969210000000     0.0346751  
H499     H      0.960850000000     0.597170000000     0.060210000000     0.0373128  
H500     H      0.944820000000     0.638560000000     0.069100000000     0.0471374  
H501     H      0.071700000000     0.392700000000     0.023710000000     0.0315037  
H502     H      0.084850000000     0.348240000000     0.017560000000     0.0457723  
H503     H      0.028110000000     0.333320000000     0.934890000000     0.0463041  
H504     H      0.015750000000     0.378150000000     0.940590000000     0.0354062  
H505     H      0.048770000000     0.288260000000     0.017860000000     0.0377313  
H506     H      0.049490000000     0.236610000000     0.014180000000     0.0378989  
H507     H      0.073220000000     0.265460000000     0.925120000000     0.0370345  
H508     H      0.072810000000     0.317930000000     0.928880000000     0.0368921  
H509     H      0.090740000000     0.217050000000     0.007260000000     0.0463564  
H510     H      0.077940000000     0.159400000000     0.010120000000     0.0345843  
H511     H      0.016620000000     0.145710000000     0.929560000000     0.0305311  
H512     H      0.028290000000     0.203760000000     0.927430000000     0.0458156  
O1       O      0.114870000000     0.066570000000     0.003160000000    -0.368711   
O2       O      0.088540000000     0.087770000000     0.027060000000    -0.354615   
O3       O      0.978050000000     0.002910000000     0.902560000000    -0.364556   
O4       O      0.967620000000     0.949230000000     0.913930000000    -0.365513   
O5       O      0.023050000000     0.094090000000     0.952760000000    -0.366567   
O6       O      0.037150000000     0.100400000000     0.000470000000    -0.365524   
O7       O      0.075520000000     0.974960000000     0.957280000000    -0.373851   
O8       O      0.021420000000     0.931170000000     0.946540000000    -0.359098   
O9       O      0.115480000000     0.045300000000     0.950060000000    -0.333746   
O10      O      0.112030000000     0.998640000000     0.015160000000    -0.526655   
O11      O      0.042900000000     0.067780000000     0.908510000000    -0.52886    
O12      O      0.956780000000     0.049390000000     0.920770000000    -0.341103   
O13      O      0.048110000000     0.049990000000     0.979430000000    -0.496797   
O14      O      0.025790000000     0.999150000000     0.949700000000    -0.633469   
O15      O      0.982820000000     0.898340000000     0.036250000000    -0.36693    
O16      O      0.969190000000     0.891490000000     0.988600000000    -0.36224    
O17      O      0.930500000000     0.014990000000     0.034260000000    -0.371966   
O18      O      0.984250000000     0.060290000000     0.042780000000    -0.355936   
O19      O      0.890720000000     0.926490000000     0.984010000000    -0.367865   
O20      O      0.917550000000     0.904400000000     0.961810000000    -0.356365   
O21      O      0.024170000000     0.988300000000     0.087040000000    -0.37405    
O22      O      0.036610000000     0.042520000000     0.075400000000    -0.36805    
O23      O      0.966770000000     0.922290000000     0.081910000000    -0.522294   
O24      O      0.053210000000     0.946680000000     0.065550000000    -0.35325    
O25      O      0.889330000000     0.945050000000     0.037570000000    -0.333751   
O26      O      0.895410000000     0.995890000000     0.974520000000    -0.531273   
O27      O      0.958120000000     0.942340000000     0.009900000000    -0.634187   
O28      O      0.980270000000     0.992900000000     0.039260000000    -0.494649   
O29      O      0.027790000000     0.958820000000     0.000420000000    -0.49353    
O30      O      0.978320000000     0.033190000000     0.988510000000    -0.629681   
O31      O      0.051310000000     0.011240000000     0.030600000000    -0.631117   
O32      O      0.955010000000     0.981050000000     0.958380000000    -0.494207   
O33      O      0.000730000000     0.914450000000     0.466780000000    -0.37474    
O34      O      0.053600000000     0.958380000000     0.453570000000    -0.360671   
O35      O      0.903490000000     0.992790000000     0.450640000000    -0.362165   
O36      O      0.894820000000     0.987200000000     0.498300000000    -0.358673   
O37      O      0.995020000000     0.011390000000     0.401610000000    -0.371512   
O38      O      0.047370000000     0.011970000000     0.414080000000    -0.361832   
O39      O      0.916460000000     0.901970000000     0.521380000000    -0.366117   
O40      O      0.901320000000     0.938090000000     0.536750000000    -0.354774   
O41      O      0.925760000000     0.887640000000     0.466710000000    -0.341225   
O42      O      0.980420000000     0.891780000000     0.528050000000    -0.530162   
O43      O      0.922460000000     0.961130000000     0.411620000000    -0.523828   
O44      O      0.957780000000     0.048000000000     0.414590000000    -0.345087   
O45      O      0.991320000000     0.969830000000     0.454560000000    -0.494193   
O46      O      0.940440000000     0.962690000000     0.483320000000    -0.633744   
O47      O      0.004160000000     0.985310000000     0.587390000000    -0.372271   
O48      O      0.953000000000     0.987190000000     0.575180000000    -0.36277    
O49      O      0.086200000000     0.099170000000     0.469940000000    -0.370913   
O50      O      0.099790000000     0.063110000000     0.452410000000    -0.354243   
O51      O      0.998560000000     0.087250000000     0.519960000000    -0.362678   
O52      O      0.947030000000     0.042790000000     0.535130000000    -0.357531   
O53      O      0.099610000000     0.012670000000     0.538560000000    -0.360412   
O54      O      0.106650000000     0.015750000000     0.490830000000    -0.359721   
O55      O      0.075810000000     0.038850000000     0.579900000000    -0.524917   
O56      O      0.046310000000     0.953660000000     0.573140000000    -0.352738   
O57      O      0.074050000000     0.111120000000     0.525990000000    -0.346163   
O58      O      0.024920000000     0.111530000000     0.461810000000    -0.530177   
O59      O      0.009900000000     0.031180000000     0.535110000000    -0.630417   
O60      O      0.060970000000     0.038250000000     0.506050000000    -0.497418   
O61      O      0.978720000000     0.961270000000     0.535400000000    -0.494401   
O62      O      0.022610000000     0.040240000000     0.454150000000    -0.633323   
O63      O      0.030760000000     0.967810000000     0.506600000000    -0.632589   
O64      O      0.970830000000     0.033490000000     0.482910000000    -0.49395    
O65      O      0.036960000000     0.424090000000     0.012240000000    -0.362432   
O66      O      0.020570000000     0.425400000000     0.964630000000    -0.363061   
O67      O      0.906730000000     0.463950000000     0.040640000000    -0.36897    
O68      O      0.946010000000     0.512350000000     0.060590000000    -0.351505   
O69      O      0.909810000000     0.405670000000     0.973750000000    -0.370153   
O70      O      0.951030000000     0.414080000000     0.943240000000    -0.353993   
O71      O      0.032950000000     0.476780000000     0.085530000000    -0.374306   
O72      O      0.017740000000     0.517360000000     0.087370000000    -0.368919   
O73      O      0.000040000000     0.409580000000     0.064850000000    -0.344638   
O74      O      0.086100000000     0.474150000000     0.052330000000    -0.526133   
O75      O      0.915040000000     0.399650000000     0.040970000000    -0.533118   
O76      O      0.872220000000     0.432150000000     0.992560000000    -0.330476   
O77      O      0.980420000000     0.438950000000     0.000980000000    -0.492356   
O78      O      0.979100000000     0.470980000000     0.043260000000    -0.628591   
O79      O      0.094540000000     0.590030000000     0.021470000000    -0.366886   
O80      O      0.052750000000     0.583410000000     0.050560000000    -0.35685    
O81      O      0.973870000000     0.523250000000     0.908920000000    -0.371827   
O82      O      0.987310000000     0.481510000000     0.906930000000    -0.364045   
O83      O      0.960740000000     0.569140000000     0.983260000000    -0.35844    
O84      O      0.979940000000     0.569650000000     0.030270000000    -0.361708   
O85      O      0.095710000000     0.535640000000     0.950520000000    -0.371993   
O86      O      0.057060000000     0.485570000000     0.932880000000    -0.357549   
O87      O      0.088670000000     0.599030000000     0.955030000000    -0.530434   
O88      O      0.130720000000     0.562640000000     0.000500000000    -0.330414   
O89      O      0.003650000000     0.589600000000     0.932690000000    -0.352886   
O90      O      0.917610000000     0.522220000000     0.939520000000    -0.529001   
O91      O      0.023060000000     0.558420000000     0.993310000000    -0.633598   
O92      O      0.023810000000     0.526180000000     0.951020000000    -0.499609   
O93      O      0.049670000000     0.521860000000     0.032430000000    -0.495873   
O94      O      0.953760000000     0.475590000000     0.961770000000    -0.631233   
O95      O      0.049420000000     0.490240000000     0.991190000000    -0.631034   
O96      O      0.954080000000     0.506780000000     0.003490000000    -0.493961   
O97      O      0.980190000000     0.403530000000     0.540340000000    -0.359579   
O98      O      0.996240000000     0.404590000000     0.495630000000    -0.355151   
O99      O      0.898860000000     0.497950000000     0.499010000000    -0.370222   
O100     O      0.937800000000     0.543840000000     0.522370000000    -0.360211   
O101     O      0.906130000000     0.415460000000     0.464890000000    -0.372915   
O102     O      0.950900000000     0.406820000000     0.455120000000    -0.35199    
O103     O      0.979180000000     0.483300000000     0.586740000000    -0.369902   
O104     O      0.984070000000     0.534770000000     0.573540000000    -0.362658   
O105     O      0.933360000000     0.415680000000     0.570520000000    -0.343872   
O106     O      0.025210000000     0.451650000000     0.584410000000    -0.530066   
O107     O      0.870480000000     0.430570000000     0.499900000000    -0.519849   
O108     O      0.898410000000     0.478300000000     0.436380000000    -0.356659   
O109     O      0.958860000000     0.442480000000     0.501530000000    -0.496086   
O110     O      0.953170000000     0.485480000000     0.527910000000    -0.630017   
O111     O      0.091360000000     0.582220000000     0.534000000000    -0.375817   
O112     O      0.046560000000     0.592410000000     0.540180000000    -0.360836   
O113     O      0.022360000000     0.518590000000     0.406680000000    -0.369239   
O114     O      0.015060000000     0.466190000000     0.419480000000    -0.366489   
O115     O      0.013990000000     0.595500000000     0.451140000000    -0.3642     
O116     O      0.000950000000     0.595840000000     0.496630000000    -0.358311   
O117     O      0.099710000000     0.506100000000     0.491200000000    -0.368138   
O118     O      0.061030000000     0.458190000000     0.470290000000    -0.359529   
O119     O      0.125660000000     0.573570000000     0.493270000000    -0.517426   
O120     O      0.099830000000     0.519010000000     0.554500000000    -0.357193   
O121     O      0.061230000000     0.586400000000     0.420740000000    -0.336983   
O122     O      0.969150000000     0.543770000000     0.408150000000    -0.525422   
O123     O      0.038740000000     0.558340000000     0.490680000000    -0.637857   
O124     O      0.044220000000     0.515200000000     0.464990000000    -0.494895   
O125     O      0.026140000000     0.516760000000     0.543400000000    -0.501056   
O126     O      0.970870000000     0.483280000000     0.449390000000    -0.624362   
O127     O      0.031660000000     0.472370000000     0.516530000000    -0.63289    
O128     O      0.965840000000     0.528340000000     0.476410000000    -0.490837   
O129     O      0.404360000000     0.984930000000     0.948820000000    -0.365694   
O130     O      0.397240000000     0.985270000000     0.995950000000    -0.358682   
O131     O      0.502930000000     0.911220000000     0.966500000000    -0.364676   
O132     O      0.554980000000     0.955230000000     0.951710000000    -0.357587   
O133     O      0.414350000000     0.900180000000     0.015010000000    -0.371014   
O134     O      0.402170000000     0.936900000000     0.033070000000    -0.353415   
O135     O      0.500050000000     0.014240000000     0.899720000000    -0.365081   
O136     O      0.550810000000     0.011710000000     0.912060000000    -0.361306   
O137     O      0.428660000000     0.965500000000     0.904370000000    -0.34035    
O138     O      0.460150000000     0.048900000000     0.916760000000    -0.531691   
O139     O      0.428510000000     0.889220000000     0.959600000000    -0.523029   
O140     O      0.474880000000     0.885580000000     0.024420000000    -0.344741   
O141     O      0.442490000000     0.962150000000     0.980530000000    -0.494563   
O142     O      0.493100000000     0.968340000000     0.951700000000    -0.628839   
O143     O      0.589520000000     0.096860000000     0.968180000000    -0.367525   
O144     O      0.602810000000     0.060170000000     0.951490000000    -0.353827   
O145     O      0.507560000000     0.986330000000     0.085840000000    -0.371304   
O146     O      0.455510000000     0.986230000000     0.073130000000    -0.361992   
O147     O      0.599120000000     0.004050000000     0.037080000000    -0.36045    
O148     O      0.607590000000     0.010060000000     0.989300000000    -0.359561   
O149     O      0.504060000000     0.085240000000     0.020910000000    -0.366036   
O150     O      0.450850000000     0.041670000000     0.033870000000    -0.361187   
O151     O      0.578670000000     0.109100000000     0.023130000000    -0.523375   
O152     O      0.527160000000     0.109510000000     0.960610000000    -0.350399   
O153     O      0.580450000000     0.033850000000     0.077710000000    -0.341995   
O154     O      0.541510000000     0.946960000000     0.070750000000    -0.531144   
O155     O      0.562980000000     0.034860000000     0.004680000000    -0.633025   
O156     O      0.512370000000     0.028380000000     0.033280000000    -0.495947   
O157     O      0.526090000000     0.038630000000     0.952400000000    -0.497992   
O158     O      0.479380000000     0.958060000000     0.032630000000    -0.629646   
O159     O      0.474130000000     0.032580000000     0.981080000000    -0.629486   
O160     O      0.531070000000     0.964150000000     0.003840000000    -0.494681   
O161     O      0.515500000000     0.090460000000     0.448820000000    -0.372402   
O162     O      0.533380000000     0.100510000000     0.495600000000    -0.362512   
O163     O      0.386330000000     0.925550000000     0.486720000000    -0.368048   
O164     O      0.411200000000     0.902580000000     0.463230000000    -0.35484    
O165     O      0.427980000000     0.019890000000     0.529070000000    -0.375111   
O166     O      0.482730000000     0.063530000000     0.538450000000    -0.356265   
O167     O      0.474320000000     0.999250000000     0.400590000000    -0.368638   
O168     O      0.462590000000     0.945340000000     0.413070000000    -0.364344   
O169     O      0.449330000000     0.043340000000     0.418360000000    -0.349966   
O170     O      0.536380000000     0.065250000000     0.405480000000    -0.52434    
O171     O      0.389570000000     0.993170000000     0.472840000000    -0.529425   
O172     O      0.388090000000     0.949320000000     0.539400000000    -0.333325   
O173     O      0.474710000000     0.032830000000     0.486080000000    -0.499693   
O174     O      0.449380000000     0.979020000000     0.457500000000    -0.634298   
O175     O      0.569150000000     0.971690000000     0.455550000000    -0.372218   
O176     O      0.514600000000     0.927460000000     0.446700000000    -0.357668   
O177     O      0.524540000000     0.991250000000     0.584940000000    -0.373086   
O178     O      0.535640000000     0.044960000000     0.572300000000    -0.36538    
O179     O      0.476970000000     0.897970000000     0.537450000000    -0.35964    
O180     O      0.462460000000     0.890040000000     0.489980000000    -0.364158   
O181     O      0.611420000000     0.064040000000     0.501310000000    -0.369407   
O182     O      0.585850000000     0.087510000000     0.523280000000    -0.357872   
O183     O      0.606880000000     0.995600000000     0.512380000000    -0.529025   
O184     O      0.609470000000     0.042700000000     0.447250000000    -0.337812   
O185     O      0.546380000000     0.944070000000     0.565810000000    -0.35209    
O186     O      0.461330000000     0.926560000000     0.581510000000    -0.526952   
O187     O      0.522330000000     0.957470000000     0.499820000000    -0.631323   
O188     O      0.547330000000     0.011060000000     0.528510000000    -0.499421   
O189     O      0.520130000000     0.995880000000     0.448090000000    -0.499613   
O190     O      0.477120000000     0.994410000000     0.537770000000    -0.632141   
O191     O      0.543610000000     0.048130000000     0.476090000000    -0.634492   
O192     O      0.453390000000     0.942150000000     0.509380000000    -0.495735   
O193     O      0.484510000000     0.402560000000     0.038230000000    -0.35989    
O194     O      0.501150000000     0.402880000000     0.993930000000    -0.356235   
O195     O      0.401980000000     0.495250000000     0.991780000000    -0.371732   
O196     O      0.439660000000     0.541750000000     0.014940000000    -0.35848    
O197     O      0.410860000000     0.412340000000     0.961030000000    -0.37404    
O198     O      0.456100000000     0.403600000000     0.952930000000    -0.353462   
O199     O      0.481790000000     0.483170000000     0.082350000000    -0.367683   
O200     O      0.486390000000     0.534330000000     0.067990000000    -0.362786   
O201     O      0.435460000000     0.414950000000     0.066060000000    -0.346325   
O202     O      0.527140000000     0.450900000000     0.082030000000    -0.523938   
O203     O      0.374410000000     0.427970000000     0.994780000000    -0.51935    
O204     O      0.402830000000     0.473980000000     0.930560000000    -0.357673   
O205     O      0.462890000000     0.440360000000     0.997910000000    -0.497696   
O206     O      0.456050000000     0.483790000000     0.022890000000    -0.62919    
O207     O      0.594090000000     0.581510000000     0.029320000000    -0.367156   
O208     O      0.548970000000     0.591920000000     0.033760000000    -0.355317   
O209     O      0.527140000000     0.515050000000     0.902900000000    -0.368641   
O210     O      0.520190000000     0.462930000000     0.916720000000    -0.36616    
O211     O      0.517240000000     0.592750000000     0.945120000000    -0.362571   
O212     O      0.502930000000     0.593410000000     0.990080000000    -0.355973   
O213     O      0.603760000000     0.503790000000     0.990370000000    -0.378371   
O214     O      0.565740000000     0.455590000000     0.969590000000    -0.360916   
O215     O      0.628980000000     0.571660000000     0.989350000000    -0.517749   
O216     O      0.602720000000     0.520120000000     0.052480000000    -0.34677    
O217     O      0.566120000000     0.583370000000     0.916490000000    -0.33802    
O218     O      0.474100000000     0.540510000000     0.902530000000    -0.527279   
O219     O      0.541970000000     0.556420000000     0.986000000000    -0.636183   
O220     O      0.548580000000     0.512960000000     0.961550000000    -0.495139   
O221     O      0.528780000000     0.515760000000     0.039180000000    -0.488325   
O222     O      0.475580000000     0.480400000000     0.945150000000    -0.627881   
O223     O      0.535290000000     0.471070000000     0.013740000000    -0.631504   
O224     O      0.469380000000     0.525630000000     0.970880000000    -0.492678   
O225     O      0.528570000000     0.417530000000     0.508020000000    -0.369518   
O226     O      0.519060000000     0.424110000000     0.459570000000    -0.363313   
O227     O      0.406050000000     0.468750000000     0.531420000000    -0.368907   
O228     O      0.446500000000     0.514800000000     0.553840000000    -0.352692   
O229     O      0.409010000000     0.409970000000     0.464740000000    -0.372051   
O230     O      0.451210000000     0.416320000000     0.436230000000    -0.357929   
O231     O      0.527020000000     0.470940000000     0.581460000000    -0.366863   
O232     O      0.515220000000     0.513730000000     0.583500000000    -0.367327   
O233     O      0.490100000000     0.404970000000     0.559490000000    -0.346142   
O234     O      0.578850000000     0.464320000000     0.549790000000    -0.526705   
O235     O      0.408280000000     0.401760000000     0.531580000000    -0.531306   
O236     O      0.373640000000     0.440360000000     0.481090000000    -0.330209   
O237     O      0.477440000000     0.438610000000     0.494550000000    -0.500865   
O238     O      0.476190000000     0.470040000000     0.537260000000    -0.631701   
O239     O      0.596080000000     0.588440000000     0.519510000000    -0.375549   
O240     O      0.554190000000     0.580990000000     0.548910000000    -0.358272   
O241     O      0.482100000000     0.528830000000     0.404000000000    -0.365414   
O242     O      0.491410000000     0.484530000000     0.401790000000    -0.363947   
O243     O      0.468810000000     0.573720000000     0.478920000000    -0.361547   
O244     O      0.485820000000     0.572490000000     0.526350000000    -0.363017   
O245     O      0.576960000000     0.537260000000     0.436960000000    -0.344886   
O246     O      0.558150000000     0.484760000000     0.429330000000    -0.351555   
O247     O      0.620650000000     0.597630000000     0.467010000000    -0.522498   
O248     O      0.623850000000     0.535760000000     0.502110000000    -0.366618   
O249     O      0.519180000000     0.595210000000     0.431130000000    -0.348791   
O250     O      0.429720000000     0.535010000000     0.431180000000    -0.523846   
O251     O      0.529260000000     0.558970000000     0.490830000000    -0.628229   
O252     O      0.529500000000     0.527230000000     0.448790000000    -0.470904   
O253     O      0.548930000000     0.517640000000     0.530510000000    -0.497351   
O254     O      0.457100000000     0.480020000000     0.455070000000    -0.633099   
O255     O      0.549060000000     0.486210000000     0.488220000000    -0.623473   
O256     O      0.457470000000     0.510580000000     0.497210000000    -0.495368   
Zr1      Zr     0.072070000000     0.013260000000     0.985720000000     1.38937    
Zr2      Zr     0.000880000000     0.035350000000     0.944360000000     1.36885    
Zr3      Zr     0.005620000000     0.957050000000     0.044640000000     1.36873    
Zr4      Zr     0.933960000000     0.978840000000     0.003210000000     1.38311    
Zr5      Zr     0.025660000000     0.047090000000     0.024010000000     1.36418    
Zr6      Zr     0.980320000000     0.944900000000     0.965140000000     1.37484    
Zr7      Zr     0.970290000000     0.931350000000     0.495450000000     1.38445    
Zr8      Zr     0.962460000000     0.002480000000     0.443500000000     1.37972    
Zr9      Zr     0.039050000000     0.998710000000     0.546000000000     1.37387    
Zr10     Zr     0.031290000000     0.069840000000     0.494410000000     1.37657    
Zr11     Zr     0.051770000000     0.007560000000     0.466010000000     1.36369    
Zr12     Zr     0.949300000000     0.993620000000     0.523240000000     1.3678     
Zr13     Zr     0.027290000000     0.462950000000     0.036110000000     1.37072    
Zr14     Zr     0.933320000000     0.448400000000     0.007350000000     1.38384    
Zr15     Zr     0.069960000000     0.548630000000     0.986670000000     1.38198    
Zr16     Zr     0.975830000000     0.534420000000     0.958570000000     1.38183    
Zr17     Zr     0.002250000000     0.467190000000     0.955740000000     1.36019    
Zr18     Zr     0.001260000000     0.530160000000     0.038600000000     1.36049    
Zr19     Zr     0.986040000000     0.458220000000     0.547190000000     1.38299    
Zr20     Zr     0.927020000000     0.470080000000     0.481600000000     1.3806     
Zr21     Zr     0.070270000000     0.530730000000     0.511350000000     1.38378    
Zr22     Zr     0.010810000000     0.541750000000     0.445270000000     1.37376    
Zr23     Zr     0.004170000000     0.456540000000     0.470250000000     1.35724    
Zr24     Zr     0.993730000000     0.544180000000     0.522520000000     1.37347    
Zr25     Zr     0.465680000000     0.002290000000     0.941180000000     1.37548    
Zr26     Zr     0.470390000000     0.929000000000     0.991880000000     1.37898    
Zr27     Zr     0.534750000000     0.067710000000     0.993050000000     1.37928    
Zr28     Zr     0.539860000000     0.994370000000     0.043910000000     1.37542    
Zr29     Zr     0.451680000000     0.992110000000     0.021070000000     1.36261    
Zr30     Zr     0.553820000000     0.004770000000     0.964090000000     1.3645     
Zr31     Zr     0.495420000000     0.032190000000     0.441900000000     1.38182    
Zr32     Zr     0.430100000000     0.979420000000     0.502400000000     1.38618    
Zr33     Zr     0.567070000000     0.011040000000     0.483700000000     1.38353    
Zr34     Zr     0.501220000000     0.957520000000     0.543940000000     1.37712    
Zr35     Zr     0.522820000000     0.047860000000     0.520870000000     1.36742    
Zr36     Zr     0.474340000000     0.942620000000     0.464720000000     1.36921    
Zr37     Zr     0.489020000000     0.457140000000     0.043620000000     1.37762    
Zr38     Zr     0.431040000000     0.467310000000     0.976530000000     1.38325    
Zr39     Zr     0.573640000000     0.529430000000     0.007930000000     1.38363    
Zr40     Zr     0.515080000000     0.539020000000     0.940570000000     1.37906    
Zr41     Zr     0.508860000000     0.454210000000     0.967410000000     1.36402    
Zr42     Zr     0.496250000000     0.542590000000     0.017030000000     1.3643     
Zr43     Zr     0.522380000000     0.458390000000     0.531800000000     1.37702    
Zr44     Zr     0.432510000000     0.451720000000     0.499270000000     1.3822     
Zr45     Zr     0.574210000000     0.545220000000     0.486340000000     1.35849    
Zr46     Zr     0.483800000000     0.539300000000     0.453930000000     1.37277    
Zr47     Zr     0.503180000000     0.467590000000     0.450610000000     1.37146    
Zr48     Zr     0.502460000000     0.529640000000     0.534500000000     1.369      


