data_structure

_audit_creation_method RASPA-1.0
_audit_creation_date 2023-6-4
_audit_author_name 'Poobodin Mano'

_cell_length_a    26.4451
_cell_length_b    28.838
_cell_length_c    29.8404
_cell_angle_alpha 82.7261
_cell_angle_beta  96.3482
_cell_angle_gamma 119.437
_cell_volume      19628.7

_symmetry_cell_setting          triclinic
_symmetry_space_group_name_Hall 'P 1'
_symmetry_space_group_name_H-M  'P 1'
_symmetry_Int_Tables_number     1

_symmetry_equiv_pos_as_xyz 'x,y,z'

loop_
_atom_site_label
_atom_site_type_symbol
_atom_site_fract_x
_atom_site_fract_y
_atom_site_fract_z
_atom_site_charge
C1       C      0.159190000000     0.123630000000     0.981440000000     0.395462   
C2       C      0.922580000000     0.940100000000     0.798210000000     0.400275   
C3       C      0.998790000000     0.143740000000     0.938150000000     0.417149   
C4       C      0.063450000000     0.888090000000     0.908290000000     0.376515   
C5       C      0.921410000000     0.786460000000     0.983120000000     0.422314   
C6       C      0.889210000000     0.020100000000     0.046720000000     0.369144   
C7       C      0.794340000000     0.819780000000     0.928260000000     0.386547   
C8       C      0.028890000000     0.001230000000     0.116610000000     0.397395   
C9       C      0.019180000000     0.860420000000     0.392390000000     0.391421   
C10      C      0.786880000000     0.958960000000     0.413670000000     0.382176   
C11      C      0.024120000000     0.003920000000     0.300620000000     0.408081   
C12      C      0.800090000000     0.828010000000     0.513520000000     0.395622   
C13      C      0.926450000000     0.944050000000     0.612680000000     0.393435   
C14      C      0.165470000000     0.122210000000     0.418410000000     0.384989   
C15      C      0.934000000000     0.098940000000     0.516740000000     0.405277   
C16      C      0.172900000000     0.012050000000     0.497400000000     0.400623   
C17      C      0.990650000000     0.327400000000     0.944150000000     0.434836   
C18      C      0.839760000000     0.484470000000     0.020650000000     0.396702   
C19      C      0.860990000000     0.323130000000     0.899160000000     0.402858   
C20      C      0.990290000000     0.466690000000     0.118020000000     0.405663   
C21      C      0.128600000000     0.641530000000     0.037860000000     0.407646   
C22      C      0.975800000000     0.503860000000     0.792450000000     0.399641   
C23      C      0.956060000000     0.629480000000     0.967600000000     0.418734   
C24      C      0.138140000000     0.500510000000     0.881060000000     0.38114    
C25      C      0.961060000000     0.301730000000     0.492710000000     0.382324   
C26      C      0.830120000000     0.513940000000     0.476100000000     0.399042   
C27      C      0.836740000000     0.316300000000     0.406790000000     0.399204   
C28      C      0.959640000000     0.501230000000     0.608310000000     0.406739   
C29      C      0.122860000000     0.640990000000     0.519180000000     0.392366   
C30      C      0.988230000000     0.455840000000     0.302790000000     0.403368   
C31      C      0.000840000000     0.659820000000     0.415260000000     0.405225   
C32      C      0.128820000000     0.451480000000     0.425750000000     0.371468   
C33      C      0.284840000000     0.941210000000     0.921730000000     0.387021   
C34      C      0.526700000000     0.858830000000     0.908880000000     0.416244   
C35      C      0.310840000000     0.835580000000     0.029710000000     0.387573   
C36      C      0.529420000000     0.007030000000     0.807490000000     0.41073    
C37      C      0.664160000000     0.127140000000     0.907490000000     0.411225   
C38      C      0.441240000000     0.964850000000     0.121630000000     0.390414   
C39      C      0.672380000000     0.999990000000     0.006970000000     0.401366   
C40      C      0.442560000000     0.100550000000     0.024180000000     0.376413   
C41      C      0.529240000000     0.164470000000     0.452530000000     0.418153   
C42      C      0.301220000000     0.830490000000     0.448650000000     0.388861   
C43      C      0.390260000000     0.043540000000     0.545980000000     0.395479   
C44      C      0.428470000000     0.958120000000     0.307100000000     0.40077    
C45      C      0.567360000000     0.930140000000     0.373180000000     0.391806   
C46      C      0.540820000000     0.009700000000     0.623700000000     0.390689   
C47      C      0.435040000000     0.801870000000     0.478460000000     0.428141   
C48      C      0.663820000000     0.132480000000     0.491050000000     0.382204   
C49      C      0.464400000000     0.303800000000     0.001460000000     0.40459    
C50      C      0.329160000000     0.507390000000     0.985330000000     0.390043   
C51      C      0.344410000000     0.314960000000     0.914670000000     0.391192   
C52      C      0.463350000000     0.500180000000     0.117310000000     0.400145   
C53      C      0.620240000000     0.643340000000     0.021210000000     0.376632   
C54      C      0.506260000000     0.464870000000     0.813080000000     0.404083   
C55      C      0.499590000000     0.657940000000     0.929530000000     0.386341   
C56      C      0.635710000000     0.462120000000     0.927690000000     0.384464   
C57      C      0.534370000000     0.351640000000     0.451290000000     0.422024   
C58      C      0.318950000000     0.458600000000     0.531800000000     0.397779   
C59      C      0.370190000000     0.309170000000     0.420760000000     0.372471   
C60      C      0.499020000000     0.469400000000     0.627770000000     0.413952   
C61      C      0.606430000000     0.630450000000     0.540590000000     0.369176   
C62      C      0.460810000000     0.495960000000     0.302370000000     0.414235   
C63      C      0.422520000000     0.611360000000     0.480390000000     0.42484    
C64      C      0.630980000000     0.507120000000     0.385970000000     0.378846   
C65      C      0.522450000000     0.511400000000     0.740650000000     0.0270105  
C66      C      0.501870000000     0.421510000000     0.748230000000     0.00749565 
C67      C      0.517710000000     0.511510000000     0.694230000000     0.0367559  
C68      C      0.497290000000     0.421290000000     0.700770000000     0.130578   
C69      C      0.447770000000     0.455080000000     0.190140000000     0.0266999  
C70      C      0.463020000000     0.543300000000     0.180940000000     0.00803111 
C71      C      0.448400000000     0.454750000000     0.236310000000     0.0356595  
C72      C      0.464500000000     0.543640000000     0.228340000000     0.131193   
C73      C      0.418530000000     0.673820000000     0.522110000000     0.0461394  
C74      C      0.392670000000     0.671360000000     0.443800000000     0.0117669  
C75      C      0.420540000000     0.722640000000     0.521440000000     0.0382476  
C76      C      0.395260000000     0.720340000000     0.442560000000     0.139121   
C77      C      0.538180000000     0.289950000000     0.408590000000     0.0409825  
C78      C      0.571220000000     0.295700000000     0.485490000000     0.0121702  
C79      C      0.536650000000     0.241360000000     0.409150000000     0.0442784  
C80      C      0.571080000000     0.247760000000     0.486150000000     0.139038   
C81      C      0.559530000000     0.981260000000     0.699640000000     0.0331341  
C82      C      0.535190000000     0.050370000000     0.686250000000     0.00825753 
C83      C      0.558860000000     0.982590000000     0.746350000000     0.0387093  
C84      C      0.531550000000     0.050150000000     0.732920000000     0.139033   
C85      C      0.407870000000     0.985040000000     0.184280000000     0.0316454  
C86      C      0.449310000000     0.928350000000     0.196210000000     0.00960561 
C87      C      0.406770000000     0.984530000000     0.231460000000     0.034963   
C88      C      0.443500000000     0.923730000000     0.243020000000     0.133355   
C89      C      0.522340000000     0.739330000000     0.958610000000     0.0299623  
C90      C      0.519380000000     0.737040000000     0.879740000000     0.0103968  
C91      C      0.537390000000     0.792950000000     0.952930000000     0.0516727  
C92      C      0.530990000000     0.790970000000     0.873510000000     0.135708   
C93      C      0.487360000000     0.190620000000     0.996070000000     0.0373058  
C94      C      0.405430000000     0.158730000000     0.038660000000     0.00796287 
C95      C      0.491250000000     0.240550000000     0.989140000000     0.0305969  
C96      C      0.412380000000     0.211380000000     0.035450000000     0.124529   
C97      C      0.760220000000     0.183140000000     0.465860000000     0.0298057  
C98      C      0.694500000000     0.216390000000     0.448590000000     0.00119375 
C99      C      0.802230000000     0.227680000000     0.441280000000     0.0315756  
C100     C      0.735040000000     0.259170000000     0.421150000000     0.122631   
C101     C      0.264350000000     0.739630000000     0.478830000000     0.0266515  
C102     C      0.210950000000     0.783560000000     0.485270000000     0.00666019 
C103     C      0.221710000000     0.693580000000     0.501210000000     0.0313225  
C104     C      0.168880000000     0.737690000000     0.509660000000     0.124428   
C105     C      0.684920000000     0.464490000000     0.419340000000     0.0212255  
C106     C      0.732440000000     0.558060000000     0.407450000000     0.00901684 
C107     C      0.733060000000     0.467400000000     0.445690000000     0.0397609  
C108     C      0.782440000000     0.561270000000     0.432780000000     0.135747   
C109     C      0.176720000000     0.405990000000     0.468480000000     0.0226968  
C110     C      0.220840000000     0.499470000000     0.464830000000     0.00161548 
C111     C      0.223260000000     0.408120000000     0.497760000000     0.030547   
C112     C      0.262670000000     0.501100000000     0.499180000000     0.127553   
C113     C      0.978820000000     0.549910000000     0.719330000000     0.0308147  
C114     C      0.940620000000     0.456400000000     0.727320000000     0.00573335 
C115     C      0.972850000000     0.548940000000     0.672120000000     0.0357687  
C116     C      0.930640000000     0.454730000000     0.680660000000     0.130869   
C117     C      0.001430000000     0.422710000000     0.237720000000     0.0349977  
C118     C      0.958320000000     0.478200000000     0.230300000000     0.00962491 
C119     C      0.002070000000     0.426320000000     0.190440000000     0.0381891  
C120     C      0.956230000000     0.479950000000     0.183570000000     0.131907   
C121     C      0.792680000000     0.247010000000     0.938960000000     0.042404   
C122     C      0.806340000000     0.237320000000     0.865080000000     0.0140863  
C123     C      0.740070000000     0.201240000000     0.939100000000     0.0444835  
C124     C      0.753600000000     0.186580000000     0.866370000000     0.138908   
C125     C      0.211190000000     0.783530000000     0.050670000000     0.0334861  
C126     C      0.273480000000     0.746100000000     0.059590000000     0.00737383 
C127     C      0.162670000000     0.731500000000     0.053900000000     0.0381301  
C128     C      0.226030000000     0.694690000000     0.064300000000     0.130861   
C129     C      0.785700000000     0.523290000000     0.977570000000     0.0374526  
C130     C      0.738650000000     0.432290000000     0.003050000000     0.0100273  
C131     C      0.735490000000     0.515360000000     0.950620000000     0.0348662  
C132     C      0.688690000000     0.423610000000     0.975360000000     0.121616   
C133     C      0.284590000000     0.552260000000     0.936700000000     0.0296633  
C134     C      0.233330000000     0.459090000000     0.952560000000     0.0163142  
C135     C      0.237240000000     0.549060000000     0.907860000000     0.0265047  
C136     C      0.188430000000     0.455080000000     0.920760000000     0.121527   
C137     C      0.648650000000     0.727010000000     0.537190000000     0.0243284  
C138     C      0.708160000000     0.686770000000     0.549300000000    -0.000187643
C139     C      0.698950000000     0.777840000000     0.530800000000     0.0335278  
C140     C      0.758110000000     0.736770000000     0.543800000000     0.131776   
C141     C      0.245850000000     0.189700000000     0.375750000000     0.035725   
C142     C      0.254770000000     0.177620000000     0.455150000000     0.0133189  
C143     C      0.299710000000     0.238030000000     0.376200000000     0.0301986  
C144     C      0.310520000000     0.222030000000     0.455320000000     0.128507   
C145     C      0.719390000000     0.973640000000     0.363050000000     0.0227591  
C146     C      0.684630000000     0.903670000000     0.420930000000     0.000952705
C147     C      0.662820000000     0.964440000000     0.351710000000     0.0361269  
C148     C      0.626760000000     0.890860000000     0.406720000000     0.121965   
C149     C      0.302130000000     0.031220000000     0.568730000000     0.0336393  
C150     C      0.333820000000     0.072550000000     0.496660000000     0.0164765  
C151     C      0.245770000000     0.020910000000     0.554800000000     0.0297111  
C152     C      0.275980000000     0.057500000000     0.480750000000     0.121862   
C153     C      0.055760000000     0.802620000000     0.425320000000     0.0321651  
C154     C      0.989430000000     0.777700000000     0.362100000000     0.0107083  
C155     C      0.047000000000     0.750150000000     0.432770000000     0.0345354  
C156     C      0.985850000000     0.726780000000     0.366350000000     0.139562   
C157     C      0.933400000000     0.217400000000     0.465830000000     0.0233174  
C158     C      0.949780000000     0.225830000000     0.544140000000     0.00607746 
C159     C      0.918220000000     0.163410000000     0.473170000000     0.0320609  
C160     C      0.940190000000     0.172420000000     0.551490000000     0.129393   
C161     C      0.893180000000     0.962370000000     0.676300000000     0.0311237  
C162     C      0.934940000000     0.905900000000     0.686570000000     0.00960446 
C163     C      0.894900000000     0.962970000000     0.723510000000     0.0358508  
C164     C      0.934570000000     0.904360000000     0.733770000000     0.128341   
C165     C      0.023950000000     0.042260000000     0.179140000000     0.0303559  
C166     C      0.051600000000     0.975320000000     0.191920000000     0.00660195 
C167     C      0.020720000000     0.041180000000     0.225740000000     0.0362201  
C168     C      0.053010000000     0.977110000000     0.238950000000     0.133547   
C169     C      0.718560000000     0.695090000000     0.999770000000     0.0255761  
C170     C      0.655400000000     0.730870000000     0.982560000000    -0.00122193 
C171     C      0.759370000000     0.735980000000     0.971550000000     0.0185608  
C172     C      0.696920000000     0.773200000000     0.955120000000     0.126151   
C173     C      0.304400000000     0.221990000000     0.941790000000     0.0346858  
C174     C      0.245710000000     0.262870000000     0.933990000000     0.00440886 
C175     C      0.258170000000     0.175050000000     0.961010000000     0.0337498  
C176     C      0.201330000000     0.218070000000     0.956840000000     0.125123   
C177     C      0.790050000000     0.979150000000     0.062060000000     0.0255212  
C178     C      0.831850000000     0.060930000000     0.016960000000     0.00517439 
C179     C      0.734900000000     0.973760000000     0.051330000000     0.0357301  
C180     C      0.776080000000     0.054620000000     0.004470000000     0.127265   
C181     C      0.201440000000     0.924970000000     0.871020000000     0.0266936  
C182     C      0.189530000000     0.881140000000     0.944370000000    -0.000185335
C183     C      0.140890000000     0.905690000000     0.865290000000     0.0316329  
C184     C      0.129180000000     0.859130000000     0.937630000000     0.126104   
C185     C      0.895580000000     0.667520000000     0.943760000000     0.0327306  
C186     C      0.934740000000     0.672230000000     0.019230000000     0.0150413  
C187     C      0.880240000000     0.705150000000     0.950390000000     0.0342043  
C188     C      0.918990000000     0.710090000000     0.025750000000     0.138672   
C189     C      0.994350000000     0.218300000000     0.898970000000     0.0397954  
C190     C      0.979930000000     0.198200000000     0.977360000000     0.0145128  
C191     C      0.991220000000     0.264480000000     0.900950000000     0.0527302  
C192     C      0.972120000000     0.241820000000     0.978790000000     0.141184   
H1       H      0.026820000000     0.979840000000     0.855490000000     0.212051   
H2       H      0.912760000000     0.045560000000     0.951490000000     0.197613   
H3       H      0.876360000000     0.847930000000     0.991520000000     0.192833   
H4       H      0.091960000000     0.008000000000     0.037370000000     0.199533   
H5       H      0.858680000000     0.027590000000     0.853370000000     0.141697   
H6       H      0.810170000000     0.005980000000     0.930990000000     0.203136   
H7       H      0.790190000000     0.846360000000     0.034400000000     0.13164    
H8       H      0.883670000000     0.840840000000     0.094300000000     0.203212   
H9       H      0.095980000000     0.911870000000     0.043080000000     0.141207   
H10      H      0.190300000000     0.982690000000     0.978060000000     0.204439   
H11      H      0.151940000000     0.074810000000     0.868380000000     0.13947    
H12      H      0.037970000000     0.089610000000     0.798820000000     0.213879   
H13      H      0.941140000000     0.839440000000     0.122880000000     0.229765   
H14      H      0.214260000000     0.026600000000     0.932800000000     0.207434   
H15      H      0.077180000000     0.124280000000     0.842710000000     0.209268   
H16      H      0.756460000000     0.953720000000     0.958210000000     0.230712   
H17      H      0.839400000000     0.899970000000     0.424330000000     0.194629   
H18      H      0.042160000000     0.074730000000     0.373430000000     0.192477   
H19      H      0.993030000000     0.034620000000     0.552410000000     0.201708   
H20      H      0.041440000000     0.898960000000     0.480250000000     0.206746   
H21      H      0.964520000000     0.094660000000     0.324280000000     0.13728    
H22      H      0.988380000000     0.150890000000     0.402290000000     0.203273   
H23      H      0.113500000000     0.150490000000     0.532620000000     0.140959   
H24      H      0.097940000000     0.048680000000     0.603580000000     0.196491   
H25      H      0.001920000000     0.862380000000     0.587670000000     0.155127   
H26      H      0.951950000000     0.800220000000     0.520590000000     0.221161   
H27      H      0.833840000000     0.820340000000     0.380650000000     0.1305     
H28      H      0.851460000000     0.901160000000     0.317730000000     0.198863   
H29      H      0.101970000000     0.994710000000     0.627360000000     0.211813   
H30      H      0.938500000000     0.771440000000     0.472210000000     0.229205   
H31      H      0.842270000000     0.952160000000     0.293000000000     0.211592   
H32      H      0.058280000000     0.176130000000     0.391580000000     0.196899   
H33      H      0.916730000000     0.428800000000     0.048170000000     0.212894   
H34      H      0.899070000000     0.458420000000     0.861960000000     0.193538   
H35      H      0.066940000000     0.624010000000     0.955050000000     0.210482   
H36      H      0.087650000000     0.444550000000     0.957870000000     0.213731   
H37      H      0.790620000000     0.425440000000     0.882280000000     0.13712    
H38      H      0.877800000000     0.560860000000     0.835200000000     0.207376   
H39      H      0.093050000000     0.645570000000     0.861610000000     0.137041   
H40      H      0.200010000000     0.656210000000     0.909420000000     0.198141   
H41      H      0.209050000000     0.556870000000     0.014910000000     0.16149    
H42      H      0.111090000000     0.402040000000     0.036810000000     0.21668    
H43      H      0.913970000000     0.330300000000     0.067530000000     0.141489   
H44      H      0.770110000000     0.332880000000     0.996780000000     0.204094   
H45      H      0.237180000000     0.643480000000     0.953840000000     0.207291   
H46      H      0.118200000000     0.442230000000     0.075700000000     0.218416   
H47      H      0.744450000000     0.348830000000     0.946930000000     0.212237   
H48      H      0.934210000000     0.620890000000     0.821640000000     0.215597   
H49      H      0.889660000000     0.451230000000     0.536110000000     0.214152   
H50      H      0.905580000000     0.436230000000     0.360230000000     0.200445   
H51      H      0.071150000000     0.613020000000     0.437220000000     0.19984    
H52      H      0.063570000000     0.421880000000     0.495180000000     0.19135    
H53      H      0.811410000000     0.443390000000     0.356660000000     0.145186   
H54      H      0.927610000000     0.560890000000     0.290260000000     0.22901    
H55      H      0.100950000000     0.596890000000     0.338720000000     0.146033   
H56      H      0.174010000000     0.633180000000     0.411950000000     0.201797   
H57      H      0.140040000000     0.484640000000     0.545810000000     0.136791   
H58      H      0.062000000000     0.440620000000     0.614780000000     0.216816   
H59      H      0.863370000000     0.326580000000     0.557910000000     0.141909   
H60      H      0.787260000000     0.327640000000     0.500660000000     0.209084   
H61      H      0.221200000000     0.616300000000     0.440630000000     0.217187   
H62      H      0.058860000000     0.389830000000     0.590700000000     0.206375   
H63      H      0.743670000000     0.353270000000     0.481360000000     0.224328   
H64      H      0.882560000000     0.545040000000     0.331630000000     0.220849   
H65      H      0.464800000000     0.918130000000     0.872880000000     0.20108    
H66      H      0.426650000000     0.895050000000     0.052990000000     0.199854   
H67      H      0.621690000000     0.064710000000     0.990820000000     0.209356   
H68      H      0.413330000000     0.057740000000     0.937130000000     0.196454   
H69      H      0.442550000000     0.812180000000     0.040460000000     0.136346   
H70      H      0.544090000000     0.875780000000     0.079550000000     0.204713   
H71      H      0.612280000000     0.080500000000     0.077480000000     0.134286   
H72      H      0.619340000000     0.175490000000     0.023880000000     0.202222   
H73      H      0.536100000000     0.162000000000     0.884120000000     0.155694   
H74      H      0.444380000000     0.090960000000     0.823580000000     0.229776   
H75      H      0.361760000000     0.897640000000     0.831370000000     0.131373   
H76      H      0.345480000000     0.777010000000     0.914560000000     0.208471   
H77      H      0.621340000000     0.208670000000     0.973310000000     0.209658   
H78      H      0.381960000000     0.069550000000     0.848270000000     0.20696    
H79      H      0.322920000000     0.822170000000     0.900120000000     0.198616   
H80      H      0.548900000000     0.905750000000     0.125550000000     0.216245   
H81      H      0.362070000000     0.944670000000     0.394910000000     0.201541   
H82      H      0.443000000000     0.964730000000     0.573220000000     0.211749   
H83      H      0.548000000000     0.907800000000     0.464270000000     0.216794   
H84      H      0.576630000000     0.106380000000     0.430430000000     0.194196   
H85      H      0.334520000000     0.850090000000     0.553890000000     0.14099    
H86      H      0.424130000000     0.850140000000     0.614440000000     0.20139    
H87      H      0.616940000000     0.940630000000     0.568010000000     0.14781    
H88      H      0.658370000000     0.959300000000     0.483360000000     0.210103   
H89      H      0.656380000000     0.113430000000     0.381560000000     0.133827   
H90      H      0.486130000000     0.124860000000     0.311200000000     0.215319   
H91      H      0.353940000000     0.039270000000     0.400030000000     0.146625   
H92      H      0.272040000000     0.959850000000     0.446210000000     0.217303   
H93      H      0.706060000000     0.010630000000     0.450850000000     0.219214   
H94      H      0.549420000000     0.125660000000     0.326420000000     0.200992   
H95      H      0.256840000000     0.943510000000     0.500720000000     0.220306   
H96      H      0.479620000000     0.837050000000     0.618710000000     0.214307   
H97      H      0.391610000000     0.447050000000     0.045480000000     0.203502   
H98      H      0.409920000000     0.436710000000     0.867640000000     0.196184   
H99      H      0.570140000000     0.612540000000     0.944900000000     0.196275   
H100     H      0.570570000000     0.425280000000     0.002000000000     0.207288   
H101     H      0.313400000000     0.443040000000     0.866790000000     0.141943   
H102     H      0.385000000000     0.552920000000     0.843350000000     0.208934   
H103     H      0.596900000000     0.625930000000     0.852180000000     0.134024   
H104     H      0.681380000000     0.631850000000     0.917270000000     0.195667   
H105     H      0.662450000000     0.519490000000     0.060090000000     0.148519   
H106     H      0.571420000000     0.393790000000     0.089410000000     0.210526   
H107     H      0.372710000000     0.346020000000     0.087730000000     0.138916   
H108     H      0.296110000000     0.327530000000     0.015750000000     0.21047    
H109     H      0.726570000000     0.618610000000     0.953430000000     0.202164   
H110     H      0.577200000000     0.444480000000     0.115390000000     0.208796   
H111     H      0.247740000000     0.345920000000     0.991750000000     0.222464   
H112     H      0.401960000000     0.524450000000     0.806240000000     0.203983   
H113     H      0.412960000000     0.417570000000     0.563110000000     0.214803   
H114     H      0.376870000000     0.430550000000     0.376560000000     0.196708   
H115     H      0.527870000000     0.614450000000     0.458530000000     0.199705   
H116     H      0.590420000000     0.461820000000     0.462790000000     0.194308   
H117     H      0.274130000000     0.358440000000     0.401140000000     0.13087    
H118     H      0.315300000000     0.509440000000     0.388120000000     0.214809   
H119     H      0.518670000000     0.648730000000     0.373070000000     0.136144   
H120     H      0.622610000000     0.664650000000     0.400480000000     0.203712   
H121     H      0.689390000000     0.551540000000     0.501690000000     0.137023   
H122     H      0.635430000000     0.474030000000     0.570640000000     0.205829   
H123     H      0.494340000000     0.327630000000     0.584880000000     0.164238   
H124     H      0.276470000000     0.305490000000     0.529390000000     0.218378   
H125     H      0.670990000000     0.681020000000     0.444820000000     0.216241   
H126     H      0.613240000000     0.408510000000     0.573440000000     0.211096   
H127     H      0.249230000000     0.296000000000     0.476010000000     0.206428   
H128     H      0.337480000000     0.516380000000     0.336070000000     0.215558   
H129     H      0.526020000000     0.548750000000     0.674700000000     0.0406134  
H130     H      0.533280000000     0.548550000000     0.754240000000     0.0476873  
H131     H      0.493230000000     0.384830000000     0.768770000000     0.0635317  
H132     H      0.440470000000     0.417710000000     0.256000000000     0.0385363  
H133     H      0.440120000000     0.418490000000     0.177270000000     0.0462665  
H134     H      0.470610000000     0.579370000000     0.159810000000     0.0639287  
H135     H      0.432170000000     0.741530000000     0.552950000000     0.0403906  
H136     H      0.428240000000     0.656740000000     0.554200000000     0.0514036  
H137     H      0.380220000000     0.651520000000     0.412700000000     0.0655711  
H138     H      0.522260000000     0.221220000000     0.378180000000     0.0421692  
H139     H      0.524800000000     0.305300000000     0.377160000000     0.0479767  
H140     H      0.586160000000     0.316830000000     0.515980000000     0.0537206  
H141     H      0.567860000000     0.954600000000     0.768830000000     0.0535072  
H142     H      0.570090000000     0.953040000000     0.688050000000     0.0442424  
H143     H      0.526650000000     0.078570000000     0.663630000000     0.0705121  
H144     H      0.390840000000     0.008470000000     0.243870000000     0.0413566  
H145     H      0.393420000000     0.009700000000     0.162270000000     0.0436724  
H146     H      0.466940000000     0.905840000000     0.183580000000     0.0551861  
H147     H      0.542650000000     0.812950000000     0.982990000000     0.03685    
H148     H      0.518720000000     0.721340000000     0.993110000000     0.0484071  
H149     H      0.513460000000     0.716060000000     0.850270000000     0.0654496  
H150     H      0.525600000000     0.270580000000     0.968390000000     0.0606165  
H151     H      0.518390000000     0.185200000000     0.980090000000     0.0225561  
H152     H      0.370640000000     0.126500000000     0.057740000000     0.0568581  
H153     H      0.844120000000     0.230600000000     0.440060000000     0.04164    
H154     H      0.771420000000     0.153110000000     0.481600000000     0.0430124  
H155     H      0.651080000000     0.211230000000     0.448010000000     0.0603906  
H156     H      0.229000000000     0.659430000000     0.507310000000     0.0439921  
H157     H      0.302900000000     0.739230000000     0.470760000000     0.052712   
H158     H      0.206960000000     0.819510000000     0.481840000000     0.061333   
H159     H      0.729460000000     0.429560000000     0.460060000000     0.0306391  
H160     H      0.647680000000     0.425240000000     0.415780000000     0.0430774  
H161     H      0.733180000000     0.594980000000     0.393400000000     0.0655835  
H162     H      0.223100000000     0.370740000000     0.508420000000     0.0358702  
H163     H      0.142140000000     0.367310000000     0.459290000000     0.0391702  
H164     H      0.221290000000     0.536570000000     0.452850000000     0.0415461  
H165     H      0.988440000000     0.586620000000     0.651500000000     0.0457645  
H166     H      0.997400000000     0.588160000000     0.733480000000     0.0414681  
H167     H      0.924530000000     0.418800000000     0.748180000000     0.0630775  
H168     H      0.021090000000     0.406120000000     0.176060000000     0.0432464  
H169     H      0.019600000000     0.399980000000     0.258140000000     0.0391252  
H170     H      0.937590000000     0.496860000000     0.244790000000     0.0549041  
H171     H      0.716750000000     0.190010000000     0.969840000000     0.0393959  
H172     H      0.806510000000     0.267350000000     0.969880000000     0.041118   
H173     H      0.830140000000     0.252660000000     0.834520000000     0.063171   
H174     H      0.119400000000     0.727270000000     0.048890000000     0.0573934  
H175     H      0.203950000000     0.817630000000     0.044720000000     0.0498135  
H176     H      0.316950000000     0.750640000000     0.063150000000     0.0579685  
H177     H      0.737120000000     0.549680000000     0.929960000000     0.0289129  
H178     H      0.823410000000     0.562560000000     0.975900000000     0.0408061  
H179     H      0.738230000000     0.398080000000     0.023260000000     0.0557945  
H180     H      0.240480000000     0.586030000000     0.891300000000     0.0305347  
H181     H      0.322550000000     0.591060000000     0.940440000000     0.0369162  
H182     H      0.229790000000     0.422010000000     0.969090000000     0.0492146  
H183     H      0.693150000000     0.812640000000     0.521960000000     0.0428068  
H184     H      0.606280000000     0.724780000000     0.533390000000     0.0448005  
H185     H      0.714130000000     0.652040000000     0.558280000000     0.0670767  
H186     H      0.314070000000     0.262510000000     0.344680000000     0.0353818  
H187     H      0.221260000000     0.177870000000     0.343810000000     0.0348522  
H188     H      0.238800000000     0.153790000000     0.486780000000     0.0602978  
H189     H      0.656670000000     0.991010000000     0.325230000000     0.0427847  
H190     H      0.754390000000     0.006280000000     0.344420000000     0.0429138  
H191     H      0.692210000000     0.878360000000     0.447830000000     0.0544485  
H192     H      0.213310000000     0.000800000000     0.579880000000     0.0413946  
H193     H      0.310070000000     0.017060000000     0.602830000000     0.0399027  
H194     H      0.367440000000     0.090900000000     0.472370000000     0.058887   
H195     H      0.069510000000     0.740640000000     0.461630000000     0.0555074  
H196     H      0.083370000000     0.831010000000     0.449660000000     0.0389012  
H197     H      0.964750000000     0.787080000000     0.334450000000     0.0710357  
H198     H      0.907390000000     0.140890000000     0.443770000000     0.0243771  
H199     H      0.931970000000     0.233140000000     0.431020000000     0.0403797  
H200     H      0.961010000000     0.249210000000     0.572940000000     0.0633024  
H201     H      0.879060000000     0.986620000000     0.736570000000     0.0473607  
H202     H      0.877480000000     0.986500000000     0.654960000000     0.0502114  
H203     H      0.952620000000     0.883850000000     0.673230000000     0.0606441  
H204     H      0.007180000000     0.067290000000     0.237480000000     0.0329566  
H205     H      0.011790000000     0.068430000000     0.156950000000     0.0452406  
H206     H      0.063190000000     0.948100000000     0.179650000000     0.0629062  
H207     H      0.800250000000     0.736690000000     0.969840000000     0.0363599  
H208     H      0.729890000000     0.665860000000     0.017310000000     0.0353186  
H209     H      0.614620000000     0.729790000000     0.985520000000     0.0598639  
H210     H      0.265200000000     0.140940000000     0.969990000000     0.0390733  
H211     H      0.344910000000     0.222330000000     0.938090000000     0.0443686  
H212     H      0.238270000000     0.296530000000     0.923590000000     0.0609958  
H213     H      0.697800000000     0.938590000000     0.065630000000     0.0390217  
H214     H      0.793610000000     0.947990000000     0.084390000000     0.0386895  
H215     H      0.869430000000     0.096100000000     0.003390000000     0.0560932  
H216     H      0.123920000000     0.920030000000     0.835230000000     0.0432874  
H217     H      0.228570000000     0.951070000000     0.843990000000     0.0393388  
H218     H      0.207050000000     0.869440000000     0.975540000000     0.0591101  
H219     H      0.859000000000     0.717570000000     0.921990000000     0.0417963  
H220     H      0.884730000000     0.651170000000     0.911090000000     0.0395484  
H221     H      0.953040000000     0.657140000000     0.047900000000     0.0720544  
H222     H      0.997380000000     0.290180000000     0.869880000000     0.0553984  
H223     H      0.002200000000     0.209550000000     0.866940000000     0.0525031  
H224     H      0.972130000000     0.171130000000     0.007750000000     0.0694712  
N1       N      0.511600000000     0.465780000000     0.767780000000    -0.170973   
N2       N      0.504090000000     0.466600000000     0.674020000000    -0.187434   
N3       N      0.478150000000     0.371510000000     0.681900000000    -0.0285412  
N4       N      0.457280000000     0.499830000000     0.162380000000    -0.170637   
N5       N      0.458170000000     0.499010000000     0.255950000000    -0.186988   
N6       N      0.479290000000     0.592840000000     0.246430000000    -0.0271845  
N7       N      0.409890000000     0.651160000000     0.482370000000    -0.170105   
N8       N      0.415200000000     0.748290000000     0.480980000000    -0.18825    
N9       N      0.381140000000     0.741480000000     0.399710000000    -0.0266476  
N10      N      0.549300000000     0.313540000000     0.448170000000    -0.174435   
N11      N      0.547090000000     0.217800000000     0.449100000000    -0.186978   
N12      N      0.593170000000     0.230110000000     0.526910000000    -0.0260271  
N13      N      0.546430000000     0.014360000000     0.669580000000    -0.166005   
N14      N      0.541370000000     0.014440000000     0.762720000000    -0.181069   
N15      N      0.521190000000     0.089840000000     0.748570000000    -0.028894   
N16      N      0.431790000000     0.958960000000     0.166960000000    -0.166925   
N17      N      0.424760000000     0.954180000000     0.261000000000    -0.180956   
N18      N      0.462630000000     0.890490000000     0.271070000000    -0.029064   
N19      N      0.513210000000     0.710950000000     0.922230000000    -0.16552    
N20      N      0.539230000000     0.818140000000     0.910780000000    -0.182377   
N21      N      0.533300000000     0.816270000000     0.828360000000    -0.0311218  
N22      N      0.444030000000     0.149250000000     0.019780000000    -0.174747   
N23      N      0.455330000000     0.252130000000     0.009430000000    -0.179286   
N24      N      0.372270000000     0.219780000000     0.057690000000    -0.0266247  
N25      N      0.707060000000     0.178500000000     0.470870000000    -0.169749   
N26      N      0.791100000000     0.267220000000     0.420770000000    -0.184511   
N27      N      0.715330000000     0.291400000000     0.391800000000    -0.0278831  
N28      N      0.257840000000     0.783980000000     0.468750000000    -0.167507   
N29      N      0.171080000000     0.690750000000     0.512180000000    -0.183547   
N30      N      0.129910000000     0.742900000000     0.536480000000    -0.0275019  
N31      N      0.683160000000     0.509830000000     0.402190000000    -0.174022   
N32      N      0.782610000000     0.515400000000     0.452390000000    -0.187342   
N33      N      0.831510000000     0.612960000000     0.437960000000    -0.0286133  
N34      N      0.175840000000     0.451920000000     0.451550000000    -0.176547   
N35      N      0.267840000000     0.455940000000     0.511660000000    -0.187459   
N36      N      0.293100000000     0.547720000000     0.524510000000    -0.0234304  
N37      N      0.965920000000     0.503900000000     0.746490000000    -0.170985   
N38      N      0.952520000000     0.501710000000     0.653060000000    -0.184998   
N39      N      0.893250000000     0.403800000000     0.662820000000    -0.0266835  
N40      N      0.982710000000     0.451450000000     0.257250000000    -0.17366    
N41      N      0.982520000000     0.457410000000     0.163620000000    -0.186088   
N42      N      0.921840000000     0.501280000000     0.157830000000    -0.0278668  
N43      N      0.822740000000     0.268830000000     0.900470000000    -0.167353   
N44      N      0.719040000000     0.170750000000     0.903080000000    -0.177587   
N45      N      0.734810000000     0.156470000000     0.827250000000    -0.0291266  
N46      N      0.265630000000     0.789770000000     0.048400000000    -0.167918   
N47      N      0.170650000000     0.687690000000     0.055740000000    -0.182021   
N48      N      0.236070000000     0.649690000000     0.076380000000    -0.0303525  
N49      N      0.787950000000     0.481310000000     0.002610000000    -0.172587   
N50      N      0.686400000000     0.465890000000     0.949770000000    -0.185535   
N51      N      0.641810000000     0.369900000000     0.974160000000    -0.0303768  
N52      N      0.282290000000     0.507170000000     0.959570000000    -0.171055   
N53      N      0.188090000000     0.500830000000     0.901110000000    -0.188719   
N54      N      0.144420000000     0.402640000000     0.909440000000    -0.0299882  
N55      N      0.653400000000     0.681300000000     0.543660000000    -0.169046   
N56      N      0.753070000000     0.782040000000     0.530870000000    -0.181309   
N57      N      0.814120000000     0.739720000000     0.554210000000    -0.0274528  
N58      N      0.222120000000     0.162170000000     0.415710000000    -0.163675   
N59      N      0.329620000000     0.256040000000     0.416510000000    -0.18051    
N60      N      0.347600000000     0.230170000000     0.496080000000    -0.0259345  
N61      N      0.730570000000     0.945910000000     0.399770000000    -0.169689   
N62      N      0.616860000000     0.925340000000     0.375200000000    -0.18549    
N63      N      0.579910000000     0.843450000000     0.427060000000    -0.0351755  
N64      N      0.345210000000     0.054480000000     0.538980000000    -0.171031   
N65      N      0.231130000000     0.030200000000     0.510200000000    -0.182452   
N66      N      0.266100000000     0.068080000000     0.433110000000    -0.0272578  
N67      N      0.024070000000     0.815240000000     0.391670000000    -0.167134   
N68      N      0.011420000000     0.711790000000     0.404080000000    -0.176911   
N69      N      0.951610000000     0.690550000000     0.332640000000    -0.0268995  
N70      N      0.948350000000     0.248800000000     0.501180000000    -0.164908   
N71      N      0.924250000000     0.141540000000     0.515360000000    -0.184008   
N72      N      0.946850000000     0.151190000000     0.596840000000    -0.0296677  
N73      N      0.916310000000     0.936250000000     0.658010000000    -0.167121   
N74      N      0.916290000000     0.934730000000     0.752320000000    -0.182654   
N75      N      0.961680000000     0.877080000000     0.761080000000    -0.0284185  
N76      N      0.036340000000     0.007290000000     0.162210000000    -0.167259   
N77      N      0.034240000000     0.008140000000     0.255670000000    -0.184859   
N78      N      0.068280000000     0.941900000000     0.268150000000    -0.0290336  
N79      N      0.664950000000     0.690410000000     0.002960000000    -0.173182   
N80      N      0.749220000000     0.775420000000     0.949280000000    -0.1862     
N81      N      0.681890000000     0.811790000000     0.931830000000    -0.0280848  
N82      N      0.298320000000     0.266200000000     0.928560000000    -0.168885   
N83      N      0.206320000000     0.172570000000     0.968700000000    -0.181694   
N84      N      0.151900000000     0.221980000000     0.967240000000    -0.0279447  
N85      N      0.838050000000     0.021600000000     0.043440000000    -0.174658   
N86      N      0.727660000000     0.009540000000     0.020410000000    -0.184277   
N87      N      0.771250000000     0.098600000000     0.980520000000    -0.0258522  
N88      N      0.225700000000     0.916380000000     0.912160000000    -0.169228   
N89      N      0.106240000000     0.877220000000     0.900480000000    -0.18086    
N90      N      0.091870000000     0.821550000000     0.971730000000    -0.0301775  
N91      N      0.929150000000     0.656540000000     0.976570000000    -0.172033   
N92      N      0.902730000000     0.733050000000     0.988150000000    -0.188849   
N93      N      0.922040000000     0.725480000000     0.070370000000    -0.0262913  
N94      N      0.992140000000     0.187330000000     0.937800000000    -0.169023   
N95      N      0.983600000000     0.277770000000     0.941430000000    -0.18654    
N96      N      0.946930000000     0.245000000000     0.017780000000    -0.0258786  
O1       O      0.162010000000     0.081270000000     0.977250000000    -0.383383   
O2       O      0.111740000000     0.121010000000     0.992290000000    -0.332303   
O3       O      0.934660000000     0.985800000000     0.811080000000    -0.369073   
O4       O      0.920080000000     0.900880000000     0.826040000000    -0.354353   
O5       O      0.985200000000     0.119150000000     0.901720000000    -0.36836    
O6       O      0.012990000000     0.127160000000     0.976640000000    -0.365067   
O7       O      0.069620000000     0.910140000000     0.944420000000    -0.317538   
O8       O      0.017540000000     0.876640000000     0.882070000000    -0.328534   
O9       O      0.134870000000     0.035550000000     0.868910000000    -0.359656   
O10      O      0.183680000000     0.004320000000     0.953140000000    -0.521311   
O11      O      0.042470000000     0.094680000000     0.830700000000    -0.52693    
O12      O      0.895570000000     0.053200000000     0.839190000000    -0.322617   
O13      O      0.047560000000     0.057350000000     0.934920000000    -0.493704   
O14      O      0.013620000000     0.979110000000     0.884600000000    -0.628827   
O15      O      0.944580000000     0.814430000000     0.017640000000    -0.347364   
O16      O      0.919040000000     0.806400000000     0.942600000000    -0.369964   
O17      O      0.886170000000     0.974800000000     0.046460000000    -0.342861   
O18      O      0.936900000000     0.061430000000     0.035190000000    -0.348921   
O19      O      0.795910000000     0.864780000000     0.927580000000    -0.351138   
O20      O      0.838970000000     0.817570000000     0.917090000000    -0.345404   
O21      O      0.016700000000     0.955370000000     0.104160000000    -0.367883   
O22      O      0.030770000000     0.040090000000     0.088680000000    -0.370035   
O23      O      0.924570000000     0.851300000000     0.096450000000    -0.518023   
O24      O      0.063960000000     0.888270000000     0.063120000000    -0.318174   
O25      O      0.778320000000     0.872470000000     0.019460000000    -0.335901   
O26      O      0.796770000000     0.973440000000     0.950770000000    -0.537128   
O27      O      0.905630000000     0.883160000000     0.981130000000    -0.625091   
O28      O      0.939670000000     0.959970000000     0.029430000000    -0.46492    
O29      O      0.017660000000     0.915380000000     0.964130000000    -0.452839   
O30      O      0.930830000000     0.023460000000     0.952090000000    -0.626424   
O31      O      0.059690000000     0.995670000000     0.015070000000    -0.635546   
O32      O      0.893960000000     0.944780000000     0.901690000000    -0.490697   
O33      O      0.967840000000     0.854880000000     0.388550000000    -0.357552   
O34      O      0.063690000000     0.904920000000     0.403490000000    -0.349618   
O35      O      0.824710000000     0.977850000000     0.383080000000    -0.364758   
O36      O      0.798920000000     0.950260000000     0.456080000000    -0.362109   
O37      O      0.980320000000     0.008530000000     0.310100000000    -0.377392   
O38      O      0.057440000000     0.994450000000     0.330910000000    -0.347584   
O39      O      0.835560000000     0.821430000000     0.491950000000    -0.348185   
O40      O      0.807060000000     0.874820000000     0.518930000000    -0.346585   
O41      O      0.844760000000     0.800160000000     0.405490000000    -0.321464   
O42      O      0.941940000000     0.799890000000     0.488460000000    -0.532754   
O43      O      0.859490000000     0.937740000000     0.317060000000    -0.522151   
O44      O      0.925400000000     0.073790000000     0.336460000000    -0.344864   
O45      O      0.965450000000     0.936640000000     0.389720000000    -0.484809   
O46      O      0.879490000000     0.923610000000     0.433130000000    -0.628492   
O47      O      0.970070000000     0.940110000000     0.601810000000    -0.371792   
O48      O      0.894680000000     0.957470000000     0.583610000000    -0.360294   
O49      O      0.135440000000     0.125910000000     0.447720000000    -0.363884   
O50      O      0.146470000000     0.080850000000     0.395650000000    -0.338702   
O51      O      0.987420000000     0.110780000000     0.517050000000    -0.372626   
O52      O      0.891590000000     0.052330000000     0.507210000000    -0.348939   
O53      O      0.136560000000     0.997470000000     0.528840000000    -0.359774   
O54      O      0.156710000000     0.009940000000     0.455110000000    -0.34126    
O55      O      0.088680000000     0.011940000000     0.602700000000    -0.521033   
O56      O      0.038860000000     0.884800000000     0.572490000000    -0.353673   
O57      O      0.098940000000     0.164920000000     0.505470000000    -0.323399   
O58      O      0.024940000000     0.150750000000     0.408350000000    -0.532215   
O59      O      0.989320000000     0.019230000000     0.524510000000    -0.62517    
O60      O      0.075510000000     0.031210000000     0.480520000000    -0.491939   
O61      O      0.933470000000     0.909910000000     0.515690000000    -0.489097   
O62      O      0.022600000000     0.047310000000     0.397210000000    -0.626717   
O63      O      0.022540000000     0.920600000000     0.473440000000    -0.62695    
O64      O      0.933480000000     0.035340000000     0.441410000000    -0.487274   
O65      O      0.991490000000     0.342380000000     0.983350000000    -0.356868   
O66      O      0.998000000000     0.357240000000     0.907330000000    -0.36858    
O67      O      0.843510000000     0.442350000000     0.022480000000    -0.387098   
O68      O      0.887620000000     0.529450000000     0.021260000000    -0.333907   
O69      O      0.849320000000     0.347910000000     0.925240000000    -0.387826   
O70      O      0.907400000000     0.347320000000     0.876180000000    -0.333727   
O71      O      0.000350000000     0.434700000000     0.098680000000    -0.372455   
O72      O      0.986080000000     0.506550000000     0.096600000000    -0.360492   
O73      O      0.954860000000     0.337630000000     0.070580000000    -0.309781   
O74      O      0.096500000000     0.421440000000     0.050530000000    -0.529605   
O75      O      0.776390000000     0.355910000000     0.969100000000    -0.520379   
O76      O      0.809590000000     0.453810000000     0.903520000000    -0.353277   
O77      O      0.940020000000     0.397630000000     0.957600000000    -0.488652   
O78      O      0.936240000000     0.446710000000     0.020680000000    -0.631702   
O79      O      0.146090000000     0.622100000000     0.010300000000    -0.369604   
O80      O      0.074590000000     0.621630000000     0.046460000000    -0.340824   
O81      O      0.979200000000     0.542740000000     0.812050000000    -0.372708   
O82      O      0.978980000000     0.463550000000     0.813850000000    -0.381595   
O83      O      0.945320000000     0.609530000000     0.929030000000    -0.357015   
O84      O      0.989450000000     0.623380000000     0.998970000000    -0.379247   
O85      O      0.131730000000     0.540860000000     0.884330000000    -0.359366   
O86      O      0.091640000000     0.456000000000     0.874400000000    -0.330179   
O87      O      0.201150000000     0.633620000000     0.935910000000    -0.52649    
O88      O      0.180860000000     0.525860000000     0.998180000000    -0.355626   
O89      O      0.060070000000     0.651580000000     0.865500000000    -0.346306   
O90      O      0.918750000000     0.586280000000     0.838500000000    -0.517295   
O91      O      0.046580000000     0.585610000000     0.954660000000    -0.632058   
O92      O      0.049860000000     0.532370000000     0.891330000000    -0.472812   
O93      O      0.058890000000     0.512830000000     0.022680000000    -0.495754   
O94      O      0.925380000000     0.468720000000     0.888470000000    -0.631452   
O95      O      0.061570000000     0.459020000000     0.957530000000    -0.625773   
O96      O      0.924300000000     0.522010000000     0.952630000000    -0.484021   
O97      O      0.961490000000     0.327840000000     0.525490000000    -0.356877   
O98      O      0.970300000000     0.322510000000     0.451550000000    -0.353237   
O99      O      0.825510000000     0.468460000000     0.488900000000    -0.389857   
O100     O      0.881010000000     0.555680000000     0.479220000000    -0.323065   
O101     O      0.826900000000     0.355560000000     0.397490000000    -0.369825   
O102     O      0.889680000000     0.324260000000     0.411150000000    -0.3403     
O103     O      0.962640000000     0.460710000000     0.597560000000    -0.359774   
O104     O      0.964650000000     0.540920000000     0.579810000000    -0.369041   
O105     O      0.894270000000     0.346600000000     0.580790000000    -0.309625   
O106     O      0.045610000000     0.415460000000     0.591840000000    -0.535508   
O107     O      0.781350000000     0.355240000000     0.483020000000    -0.526332   
O108     O      0.795560000000     0.441760000000     0.385710000000    -0.336636   
O109     O      0.918040000000     0.387290000000     0.469110000000    -0.499333   
O110     O      0.915510000000     0.459880000000     0.512260000000    -0.616175   
O111     O      0.130400000000     0.600050000000     0.523870000000    -0.361825   
O112     O      0.071070000000     0.635720000000     0.513420000000    -0.333156   
O113     O      0.988740000000     0.497320000000     0.314760000000    -0.385121   
O114     O      0.989890000000     0.418580000000     0.331080000000    -0.375672   
O115     O      0.995410000000     0.630940000000     0.383340000000    -0.340726   
O116     O      0.997680000000     0.642500000000     0.457660000000    -0.34264    
O117     O      0.127750000000     0.495260000000     0.415980000000    -0.36318    
O118     O      0.080570000000     0.407750000000     0.421020000000    -0.352521   
O119     O      0.181630000000     0.609240000000     0.433730000000    -0.533979   
O120     O      0.165330000000     0.518890000000     0.528860000000    -0.332127   
O121     O      0.071650000000     0.609160000000     0.332670000000    -0.327979   
O122     O      0.918860000000     0.550610000000     0.321730000000    -0.527125   
O123     O      0.045140000000     0.575370000000     0.443600000000    -0.633537   
O124     O      0.047350000000     0.502190000000     0.401810000000    -0.471997   
O125     O      0.032340000000     0.511650000000     0.524410000000    -0.477778   
O126     O      0.927710000000     0.449810000000     0.387990000000    -0.62237    
O127     O      0.041190000000     0.439420000000     0.483490000000    -0.624647   
O128     O      0.920860000000     0.522370000000     0.429600000000    -0.490978   
O129     O      0.318880000000     0.955890000000     0.888770000000    -0.363068   
O130     O      0.303200000000     0.946230000000     0.963850000000    -0.361449   
O131     O      0.473690000000     0.843830000000     0.915740000000    -0.382654   
O132     O      0.568660000000     0.907280000000     0.912460000000    -0.346994   
O133     O      0.345740000000     0.828560000000     0.008090000000    -0.378257   
O134     O      0.316410000000     0.882320000000     0.033230000000    -0.349774   
O135     O      0.484290000000     0.009460000000     0.817160000000    -0.349036   
O136     O      0.562270000000     0.996120000000     0.837260000000    -0.35825    
O137     O      0.365420000000     0.933040000000     0.820680000000    -0.325686   
O138     O      0.414860000000     0.065180000000     0.843430000000    -0.531082   
O139     O      0.350430000000     0.812270000000     0.916230000000    -0.524286   
O140     O      0.441600000000     0.804460000000     0.008890000000    -0.341296   
O141     O      0.384120000000     0.927300000000     0.944030000000    -0.495707   
O142     O      0.469240000000     0.936550000000     0.899110000000    -0.629582   
O143     O      0.628890000000     0.133750000000     0.929250000000    -0.377781   
O144     O      0.652570000000     0.080810000000     0.896440000000    -0.325776   
O145     O      0.486090000000     0.962670000000     0.111090000000    -0.369203   
O146     O      0.405660000000     0.972240000000     0.091960000000    -0.356236   
O147     O      0.635800000000     0.984180000000     0.038020000000    -0.366339   
O148     O      0.660070000000     0.007970000000     0.964440000000    -0.347164   
O149     O      0.490880000000     0.100100000000     0.026020000000    -0.3559     
O150     O      0.394380000000     0.056200000000     0.021410000000    -0.358876   
O151     O      0.605720000000     0.175590000000     0.992480000000    -0.52552    
O152     O      0.506920000000     0.148180000000     0.907330000000    -0.362685   
O153     O      0.608360000000     0.046910000000     0.093870000000    -0.328839   
O154     O      0.545210000000     0.905050000000     0.093020000000    -0.529079   
O155     O      0.581380000000     0.040980000000     0.982780000000    -0.632436   
O156     O      0.496080000000     0.030850000000     0.026020000000    -0.469099   
O157     O      0.523300000000     0.046070000000     0.899190000000    -0.487623   
O158     O      0.442510000000     0.920140000000     0.027020000000    -0.633431   
O159     O      0.433510000000     0.037200000000     0.943930000000    -0.616164   
O160     O      0.529460000000     0.928950000000     0.982790000000    -0.496361   
O161     O      0.506180000000     0.137680000000     0.417070000000    -0.368481   
O162     O      0.534510000000     0.143450000000     0.491630000000    -0.35464    
O163     O      0.299010000000     0.873380000000     0.449580000000    -0.384071   
O164     O      0.346790000000     0.831860000000     0.434830000000    -0.331279   
O165     O      0.375970000000     0.994530000000     0.554140000000    -0.383751   
O166     O      0.439720000000     0.076210000000     0.529320000000    -0.329624   
O167     O      0.440270000000     0.003360000000     0.321050000000    -0.358519   
O168     O      0.423800000000     0.917870000000     0.334290000000    -0.352244   
O169     O      0.376450000000     0.053510000000     0.372520000000    -0.337286   
O170     O      0.508730000000     0.111900000000     0.331090000000    -0.518414   
O171     O      0.283580000000     0.953520000000     0.477200000000    -0.532223   
O172     O      0.315990000000     0.873060000000     0.550550000000    -0.337633   
O173     O      0.433770000000     0.033560000000     0.467420000000    -0.490578   
O174     O      0.395500000000     0.956770000000     0.416130000000    -0.634173   
O175     O      0.573950000000     0.977100000000     0.371160000000    -0.355597   
O176     O      0.518850000000     0.891290000000     0.386440000000    -0.314907   
O177     O      0.532110000000     0.965350000000     0.609770000000    -0.369298   
O178     O      0.539170000000     0.047870000000     0.596920000000    -0.372818   
O179     O      0.451320000000     0.826650000000     0.515200000000    -0.360122   
O180     O      0.439170000000     0.825210000000     0.438980000000    -0.355089   
O181     O      0.664420000000     0.088900000000     0.488640000000    -0.367503   
O182     O      0.618590000000     0.132230000000     0.503860000000    -0.335911   
O183     O      0.667120000000     0.989330000000     0.461180000000    -0.53769    
O184     O      0.670830000000     0.087830000000     0.391960000000    -0.342702   
O185     O      0.586650000000     0.906590000000     0.556250000000    -0.353066   
O186     O      0.460200000000     0.856170000000     0.603670000000    -0.522407   
O187     O      0.530880000000     0.930480000000     0.464910000000    -0.630362   
O188     O      0.569190000000     0.008580000000     0.516280000000    -0.493223   
O189     O      0.512790000000     0.996190000000     0.391080000000    -0.474047   
O190     O      0.453300000000     0.968690000000     0.542420000000    -0.636886   
O191     O      0.549300000000     0.070350000000     0.440880000000    -0.630668   
O192     O      0.416900000000     0.893770000000     0.490510000000    -0.495482   
O193     O      0.456090000000     0.326170000000     0.032860000000    -0.338635   
O194     O      0.483220000000     0.328370000000     0.962600000000    -0.350801   
O195     O      0.326060000000     0.462660000000     0.998610000000    -0.388496   
O196     O      0.379480000000     0.549920000000     0.987530000000    -0.3376     
O197     O      0.334830000000     0.354300000000     0.904280000000    -0.384103   
O198     O      0.397270000000     0.322880000000     0.918330000000    -0.335993   
O199     O      0.467650000000     0.460840000000     0.105560000000    -0.38192    
O200     O      0.465120000000     0.538850000000     0.089130000000    -0.374794   
O201     O      0.411680000000     0.352110000000     0.099910000000    -0.318621   
O202     O      0.558220000000     0.418920000000     0.092870000000    -0.536523   
O203     O      0.286960000000     0.351240000000     0.994940000000    -0.5342     
O204     O      0.292940000000     0.431130000000     0.895300000000    -0.33784    
O205     O      0.422730000000     0.386400000000     0.977920000000    -0.495092   
O206     O      0.417270000000     0.456580000000     0.021300000000    -0.618468   
O207     O      0.628260000000     0.602850000000     0.030590000000    -0.37012    
O208     O      0.567900000000     0.636550000000     0.018680000000    -0.342183   
O209     O      0.506280000000     0.505810000000     0.825790000000    -0.381514   
O210     O      0.497770000000     0.423080000000     0.839970000000    -0.373463   
O211     O      0.500080000000     0.633010000000     0.896360000000    -0.361461   
O212     O      0.489370000000     0.636130000000     0.970280000000    -0.35614    
O213     O      0.631610000000     0.504460000000     0.918930000000    -0.360355   
O214     O      0.588340000000     0.417140000000     0.926140000000    -0.336124   
O215     O      0.687510000000     0.610760000000     0.942930000000    -0.530242   
O216     O      0.673130000000     0.518830000000     0.029500000000    -0.354474   
O217     O      0.558950000000     0.613810000000     0.834930000000    -0.325834   
O218     O      0.409590000000     0.539790000000     0.834830000000    -0.536117   
O219     O      0.545140000000     0.574930000000     0.952230000000    -0.631732   
O220     O      0.548900000000     0.504540000000     0.910340000000    -0.466596   
O221     O      0.536460000000     0.512610000000     0.033370000000    -0.479498   
O222     O      0.430240000000     0.449500000000     0.896170000000    -0.618843   
O223     O      0.546990000000     0.441900000000     0.991240000000    -0.625265   
O224     O      0.419950000000     0.519020000000     0.939220000000    -0.493204   
O225     O      0.535480000000     0.365910000000     0.490970000000    -0.375086   
O226     O      0.516580000000     0.368620000000     0.414770000000    -0.378278   
O227     O      0.324650000000     0.417000000000     0.534800000000    -0.383637   
O228     O      0.365320000000     0.504480000000     0.534300000000    -0.31921    
O229     O      0.376170000000     0.326910000000     0.459220000000    -0.320274   
O230     O      0.401060000000     0.341480000000     0.388080000000    -0.347691   
O231     O      0.510130000000     0.438840000000     0.607520000000    -0.363539   
O232     O      0.484500000000     0.503590000000     0.606910000000    -0.385054   
O233     O      0.462710000000     0.333620000000     0.569330000000    -0.311508   
O234     O      0.605620000000     0.438090000000     0.565180000000    -0.53503    
O235     O      0.278810000000     0.317900000000     0.497660000000    -0.524394   
O236     O      0.282210000000     0.389540000000     0.417290000000    -0.359202   
O237     O      0.442940000000     0.388110000000     0.470380000000    -0.464196   
O238     O      0.430640000000     0.434590000000     0.534750000000    -0.620332   
O239     O      0.616170000000     0.593500000000     0.531890000000    -0.355853   
O240     O      0.553170000000     0.619860000000     0.541980000000    -0.347031   
O241     O      0.451660000000     0.528080000000     0.322280000000    -0.356177   
O242     O      0.471130000000     0.459530000000     0.323790000000    -0.386969   
O243     O      0.420670000000     0.595760000000     0.441120000000    -0.372374   
O244     O      0.439790000000     0.594530000000     0.517290000000    -0.372424   
O245     O      0.624080000000     0.547370000000     0.388910000000    -0.359828   
O246     O      0.585650000000     0.460980000000     0.381080000000    -0.343801   
O247     O      0.637780000000     0.654320000000     0.428600000000    -0.538083   
O248     O      0.693400000000     0.582580000000     0.480820000000    -0.332288   
O249     O      0.480490000000     0.626620000000     0.357510000000    -0.308199   
O250     O      0.345730000000     0.517450000000     0.368410000000    -0.528247   
O251     O      0.514260000000     0.576540000000     0.459460000000    -0.628819   
O252     O      0.523420000000     0.527110000000     0.396400000000    -0.483017   
O253     O      0.549700000000     0.515760000000     0.525900000000    -0.483107   
O254     O      0.403470000000     0.445190000000     0.402290000000    -0.630144   
O255     O      0.557940000000     0.468230000000     0.462770000000    -0.628312   
O256     O      0.398460000000     0.493610000000     0.467690000000    -0.492046   
O257     O      0.430430000000     0.351500000000     0.656270000000    -0.0968894  
O258     O      0.501020000000     0.341360000000     0.697610000000    -0.09767    
O259     O      0.453460000000     0.620110000000     0.229440000000    -0.0921169  
O260     O      0.526480000000     0.615770000000     0.272240000000    -0.0875215  
O261     O      0.332750000000     0.743350000000     0.393470000000    -0.0969776  
O262     O      0.409680000000     0.747450000000     0.364670000000    -0.0695021  
O263     O      0.566920000000     0.219690000000     0.564220000000    -0.0868774  
O264     O      0.645640000000     0.236750000000     0.529010000000    -0.0959131  
O265     O      0.487720000000     0.105900000000     0.724460000000    -0.100466   
O266     O      0.551210000000     0.115140000000     0.783580000000    -0.0947729  
O267     O      0.516300000000     0.900800000000     0.270470000000    -0.095831   
O268     O      0.424190000000     0.843720000000     0.287680000000    -0.0718935  
O269     O      0.510410000000     0.787650000000     0.793860000000    -0.106137   
O270     O      0.562180000000     0.868020000000     0.821050000000    -0.0985945  
O271     O      0.352600000000     0.193090000000     0.096120000000    -0.100873   
O272     O      0.348670000000     0.247510000000     0.036970000000    -0.103512   
O273     O      0.678300000000     0.303230000000     0.405440000000    -0.114424   
O274     O      0.726770000000     0.301300000000     0.349250000000    -0.0972783  
O275     O      0.125160000000     0.786130000000     0.531260000000    -0.113291   
O276     O      0.109290000000     0.710430000000     0.572360000000    -0.0888988  
O277     O      0.825810000000     0.648180000000     0.456980000000    -0.0850153  
O278     O      0.875940000000     0.628780000000     0.413830000000    -0.0837229  
O279     O      0.306510000000     0.542220000000     0.567420000000    -0.0893429  
O280     O      0.292570000000     0.591710000000     0.508870000000    -0.114999   
O281     O      0.852840000000     0.399200000000     0.631710000000    -0.0983802  
O282     O      0.893270000000     0.360790000000     0.682300000000    -0.0890617  
O283     O      0.924640000000     0.544880000000     0.168550000000    -0.0965788  
O284     O      0.880770000000     0.472480000000     0.129070000000    -0.101999   
O285     O      0.773140000000     0.158190000000     0.802300000000    -0.0866663  
O286     O      0.680440000000     0.133740000000     0.812720000000    -0.076991   
O287     O      0.197590000000     0.606610000000     0.097980000000    -0.100715   
O288     O      0.285490000000     0.653060000000     0.069240000000    -0.113268   
O289     O      0.623210000000     0.340770000000     0.011910000000    -0.127191   
O290     O      0.628030000000     0.346670000000     0.936660000000    -0.10963    
O291     O      0.124640000000     0.363520000000     0.941000000000    -0.111433   
O292     O      0.134410000000     0.391550000000     0.867370000000    -0.0828921  
O293     O      0.822370000000     0.700630000000     0.546320000000    -0.0937106  
O294     O      0.854670000000     0.778300000000     0.576670000000    -0.1053     
O295     O      0.402940000000     0.247440000000     0.493510000000    -0.0774718  
O296     O      0.325420000000     0.214120000000     0.535560000000    -0.0992595  
O297     O      0.584120000000     0.829360000000     0.469910000000    -0.121643   
O298     O      0.539310000000     0.808990000000     0.401320000000    -0.0714494  
O299     O      0.239940000000     0.028250000000     0.407770000000    -0.0995324  
O300     O      0.299980000000     0.115030000000     0.413800000000    -0.0959484  
O301     O      0.977520000000     0.678160000000     0.305470000000    -0.0821531  
O302     O      0.898940000000     0.682000000000     0.321400000000    -0.0881497  
O303     O      0.919880000000     0.099940000000     0.607820000000    -0.10386    
O304     O      0.976640000000     0.183170000000     0.628300000000    -0.102197   
O305     O      0.010030000000     0.904560000000     0.784370000000    -0.104217   
O306     O      0.945950000000     0.827920000000     0.754590000000    -0.0977401  
O307     O      0.119100000000     0.961200000000     0.289650000000    -0.0841158  
O308     O      0.037470000000     0.890550000000     0.265500000000    -0.0951877  
O309     O      0.665610000000     0.837480000000     0.954370000000    -0.104009   
O310     O      0.682690000000     0.820070000000     0.887970000000    -0.0870973  
O311     O      0.127620000000     0.241880000000     0.936260000000    -0.0992621  
O312     O      0.141600000000     0.219430000000     0.009380000000    -0.0905615  
O313     O      0.807720000000     0.129270000000     0.950000000000    -0.0994866  
O314     O      0.739470000000     0.114770000000     0.996640000000    -0.117344   
O315     O      0.110620000000     0.821730000000     0.013910000000    -0.106941   
O316     O      0.038690000000     0.786700000000     0.960500000000    -0.0891438  
O317     O      0.958340000000     0.721480000000     0.101740000000    -0.0868858  
O318     O      0.882700000000     0.735950000000     0.081450000000    -0.102135   
O319     O      0.964180000000     0.233690000000     0.058190000000    -0.0931845  
O320     O      0.899240000000     0.248270000000     0.012490000000    -0.0930946  
Zr1      Zr     0.090630000000     0.001730000000     0.941660000000     1.35718    
Zr2      Zr     0.967870000000     0.032830000000     0.880570000000     1.38002    
Zr3      Zr     0.985170000000     0.907110000000     0.035820000000     1.39577    
Zr4      Zr     0.860080000000     0.935850000000     0.974840000000     1.37567    
Zr5      Zr     0.012200000000     0.048250000000     0.007120000000     1.38845    
Zr6      Zr     0.939800000000     0.890820000000     0.907560000000     1.3754     
Zr7      Zr     0.923190000000     0.868700000000     0.449070000000     1.38719    
Zr8      Zr     0.923190000000     0.993250000000     0.375080000000     1.37684    
Zr9      Zr     0.032470000000     0.963340000000     0.538870000000     1.38688    
Zr10     Zr     0.033280000000     0.086970000000     0.464850000000     1.38147    
Zr11     Zr     0.065260000000     0.989980000000     0.413290000000     1.37226    
Zr12     Zr     0.888840000000     0.965620000000     0.500280000000     1.35049    
Zr13     Zr     0.006420000000     0.418700000000     0.021460000000     1.40898    
Zr14     Zr     0.872380000000     0.428650000000     0.954390000000     1.39945    
Zr15     Zr     0.113680000000     0.553640000000     0.957940000000     1.38337    
Zr16     Zr     0.982020000000     0.563580000000     0.889500000000     1.38054    
Zr17     Zr     0.993940000000     0.436910000000     0.891820000000     1.3734     
Zr18     Zr     0.988340000000     0.542040000000     0.018730000000     1.38408    
Zr19     Zr     0.972420000000     0.417230000000     0.536970000000     1.3855     
Zr20     Zr     0.860770000000     0.428620000000     0.443690000000     1.40284    
Zr21     Zr     0.101500000000     0.533580000000     0.470630000000     1.3857     
Zr22     Zr     0.989750000000     0.543850000000     0.376280000000     1.39839    
Zr23     Zr     0.985650000000     0.407070000000     0.413740000000     1.35615    
Zr24     Zr     0.976110000000     0.555830000000     0.498120000000     1.36181    
Zr25     Zr     0.423210000000     0.989910000000     0.880850000000     1.38359    
Zr26     Zr     0.429540000000     0.874520000000     0.962530000000     1.3976     
Zr27     Zr     0.534380000000     0.092870000000     0.961880000000     1.37112    
Zr28     Zr     0.541520000000     0.977430000000     0.045330000000     1.39022    
Zr29     Zr     0.394770000000     0.972920000000     0.008790000000     1.35044    
Zr30     Zr     0.570190000000     0.992750000000     0.919610000000     1.37366    
Zr31     Zr     0.464050000000     0.046080000000     0.393020000000     1.37559    
Zr32     Zr     0.369260000000     0.944020000000     0.492980000000     1.39051    
Zr33     Zr     0.597040000000     0.019760000000     0.440850000000     1.38432    
Zr34     Zr     0.501580000000     0.918840000000     0.539230000000     1.3776     
Zr35     Zr     0.519250000000     0.058370000000     0.516300000000     1.38761    
Zr36     Zr     0.444960000000     0.906700000000     0.414910000000     1.39557    
Zr37     Zr     0.478020000000     0.418070000000     0.045260000000     1.38837    
Zr38     Zr     0.362700000000     0.424700000000     0.952610000000     1.39408    
Zr39     Zr     0.605120000000     0.536380000000     0.978160000000     1.38076    
Zr40     Zr     0.489090000000     0.544080000000     0.885410000000     1.38844    
Zr41     Zr     0.490440000000     0.409080000000     0.922010000000     1.36691    
Zr42     Zr     0.475570000000     0.552370000000     0.007640000000     1.36137    
Zr43     Zr     0.512590000000     0.422380000000     0.530180000000     1.40589    
Zr44     Zr     0.361790000000     0.400240000000     0.472240000000     1.37611    
Zr45     Zr     0.594070000000     0.561710000000     0.457420000000     1.37822    
Zr46     Zr     0.442000000000     0.539520000000     0.400080000000     1.39626    
Zr47     Zr     0.486040000000     0.432700000000     0.401250000000     1.3764     
Zr48     Zr     0.468790000000     0.529580000000     0.528630000000     1.38144    


