data_structure

_audit_creation_method RASPA-1.0
_audit_creation_date 2023-6-4
_audit_author_name 'Poobodin Mano'

_cell_length_a    26.2288
_cell_length_b    28.5714
_cell_length_c    29.3028
_cell_angle_alpha 82.7375
_cell_angle_beta  96.3396
_cell_angle_gamma 119.441
_cell_volume      18940.5

_symmetry_cell_setting          triclinic
_symmetry_space_group_name_Hall 'P 1'
_symmetry_space_group_name_H-M  'P 1'
_symmetry_Int_Tables_number     1

_symmetry_equiv_pos_as_xyz 'x,y,z'

loop_
_atom_site_label
_atom_site_type_symbol
_atom_site_fract_x
_atom_site_fract_y
_atom_site_fract_z
_atom_site_charge
C1       C      0.185560000000     0.148070000000     0.000180000000     0.422971   
C2       C      0.955540000000     0.965880000000     0.810490000000     0.395437   
C3       C      0.058920000000     0.182060000000     0.949860000000     0.420782   
C4       C      0.096340000000     0.927680000000     0.887680000000     0.436527   
C5       C      0.970500000000     0.816390000000     0.995780000000     0.446954   
C6       C      0.904420000000     0.047230000000     0.055130000000     0.402507   
C7       C      0.816630000000     0.834490000000     0.943900000000     0.386341   
C8       C      0.044560000000     0.022860000000     0.132520000000     0.42894    
C9       C      0.008330000000     0.859040000000     0.410770000000     0.395054   
C10      C      0.771160000000     0.946380000000     0.426210000000     0.372844   
C11      C      0.022720000000     0.007700000000     0.317470000000     0.391155   
C12      C      0.791810000000     0.825040000000     0.537330000000     0.417602   
C13      C      0.920990000000     0.964170000000     0.630030000000     0.436676   
C14      C      0.153610000000     0.122720000000     0.425260000000     0.417084   
C15      C      0.906710000000     0.095540000000     0.517630000000     0.436168   
C16      C      0.165250000000     0.010270000000     0.520630000000     0.413126   
C17      C      0.015600000000     0.326130000000     0.972740000000     0.402543   
C18      C      0.832260000000     0.466000000000     0.024520000000     0.411147   
C19      C      0.889910000000     0.311740000000     0.922130000000     0.37209    
C20      C      0.003700000000     0.476710000000     0.138180000000     0.422733   
C21      C      0.122710000000     0.647520000000     0.050460000000     0.411094   
C22      C      0.011880000000     0.502430000000     0.808820000000     0.418372   
C23      C      0.957660000000     0.626710000000     0.973610000000     0.435233   
C24      C      0.171340000000     0.506210000000     0.913140000000     0.409193   
C25      C      0.957470000000     0.299230000000     0.512920000000     0.381165   
C26      C      0.822030000000     0.502900000000     0.503370000000     0.413434   
C27      C      0.847710000000     0.301910000000     0.450200000000     0.387607   
C28      C      0.956690000000     0.496690000000     0.633520000000     0.390149   
C29      C      0.117910000000     0.648850000000     0.533970000000     0.384323   
C30      C      0.980120000000     0.451230000000     0.319900000000     0.393865   
C31      C      0.993720000000     0.654970000000     0.437480000000     0.382715   
C32      C      0.133240000000     0.459630000000     0.437440000000     0.406311   
C33      C      0.301870000000     0.968130000000     0.917500000000     0.385563   
C34      C      0.539950000000     0.863470000000     0.919510000000     0.415671   
C35      C      0.306310000000     0.841710000000     0.023530000000     0.375192   
C36      C      0.548100000000     0.022020000000     0.811040000000     0.414446   
C37      C      0.684960000000     0.130210000000     0.927560000000     0.408062   
C38      C      0.431880000000     0.950430000000     0.125390000000     0.409989   
C39      C      0.680760000000     0.004470000000     0.018250000000     0.385522   
C40      C      0.457450000000     0.108720000000     0.040780000000     0.383947   
C41      C      0.516030000000     0.161750000000     0.444570000000     0.389959   
C42      C      0.284600000000     0.820370000000     0.458880000000     0.416831   
C43      C      0.380570000000     0.044700000000     0.553980000000     0.38689    
C44      C      0.412870000000     0.941870000000     0.312960000000     0.389412   
C45      C      0.558620000000     0.910090000000     0.385440000000     0.415101   
C46      C      0.551400000000     0.022400000000     0.626290000000     0.390153   
C47      C      0.430010000000     0.794260000000     0.498310000000     0.442882   
C48      C      0.651170000000     0.140960000000     0.480840000000     0.425529   
C49      C      0.488380000000     0.308180000000     0.015530000000     0.408605   
C50      C      0.363500000000     0.525280000000     0.006780000000     0.385507   
C51      C      0.345350000000     0.317780000000     0.925450000000     0.396926   
C52      C      0.524160000000     0.525510000000     0.128480000000     0.418413   
C53      C      0.663230000000     0.654490000000     0.018300000000     0.40852    
C54      C      0.516640000000     0.459770000000     0.816640000000     0.419524   
C55      C      0.539880000000     0.669570000000     0.932760000000     0.380858   
C56      C      0.639680000000     0.444120000000     0.925540000000     0.377716   
C57      C      0.483630000000     0.315530000000     0.469440000000     0.424462   
C58      C      0.315500000000     0.472760000000     0.531980000000     0.390452   
C59      C      0.354030000000     0.311500000000     0.414280000000     0.392522   
C60      C      0.467980000000     0.458680000000     0.639020000000     0.389812   
C61      C      0.607170000000     0.633930000000     0.558600000000     0.382491   
C62      C      0.488660000000     0.499970000000     0.309420000000     0.391537   
C63      C      0.468590000000     0.642150000000     0.477360000000     0.393537   
C64      C      0.637810000000     0.491810000000     0.408780000000     0.380176   
C65      C      0.489970000000     0.502830000000     0.710860000000    -0.0158614  
C66      C      0.452380000000     0.402810000000     0.714150000000    -0.104822   
C67      C      0.544010000000     0.508030000000     0.740040000000    -0.00841621 
C68      C      0.503950000000     0.408910000000     0.748360000000     0.321302   
C69      C      0.510300000000     0.472000000000     0.240890000000    -0.0191434  
C70      C      0.479710000000     0.544060000000     0.232220000000    -0.104016   
C71      C      0.557540000000     0.506620000000     0.207270000000    -0.0043624  
C72      C      0.523500000000     0.574520000000     0.194080000000     0.32143    
C73      C      0.494020000000     0.720530000000     0.520510000000    -0.0190544  
C74      C      0.438190000000     0.707760000000     0.443120000000    -0.112227   
C75      C      0.444160000000     0.721920000000     0.541950000000    -0.006924   
C76      C      0.387970000000     0.705410000000     0.466750000000     0.338604   
C77      C      0.562870000000     0.250250000000     0.475750000000    -0.01731    
C78      C      0.503400000000     0.235240000000     0.402110000000    -0.106238   
C79      C      0.514790000000     0.249900000000     0.501320000000    -0.00750475 
C80      C      0.454880000000     0.236080000000     0.425750000000     0.327639   
C81      C      0.600330000000     0.007880000000     0.700840000000    -0.0185277  
C82      C      0.575280000000     0.081690000000     0.689370000000    -0.104682   
C83      C      0.573190000000     0.989650000000     0.748200000000    -0.00855885 
C84      C      0.540650000000     0.061190000000     0.732750000000     0.323073   
C85      C      0.401080000000     0.977300000000     0.233930000000    -0.0174451  
C86      C      0.436370000000     0.908270000000     0.249950000000    -0.107087   
C87      C      0.377550000000     0.957150000000     0.186000000000    -0.00683071 
C88      C      0.417000000000     0.893200000000     0.199970000000     0.323142   
C89      C      0.566000000000     0.753000000000     0.967400000000    -0.0209059  
C90      C      0.565570000000     0.755110000000     0.881100000000    -0.0906497  
C91      C      0.529930000000     0.780850000000     0.958830000000     0.0103731  
C92      C      0.584150000000     0.816210000000     0.884460000000     0.314513   
C93      C      0.406250000000     0.161350000000     0.028990000000    -0.021284   
C94      C      0.491950000000     0.189140000000     0.085240000000    -0.0987726  
C95      C      0.439830000000     0.213370000000     0.998510000000    -1.08367e-05
C96      C      0.521390000000     0.246630000000     0.060250000000     0.318279   
C97      C      0.775760000000     0.216230000000     0.422420000000    -0.0259389  
C98      C      0.795310000000     0.226430000000     0.506670000000    -0.101052   
C99      C      0.716110000000     0.212860000000     0.425980000000     0.00260677 
C100     C      0.735240000000     0.222100000000     0.511080000000     0.322854   
C101     C      0.150900000000     0.745970000000     0.515010000000    -0.0187246  
C102     C      0.222380000000     0.714930000000     0.542100000000    -0.099863   
C103     C      0.177170000000     0.763210000000     0.466940000000    -0.00714128 
C104     C      0.245990000000     0.726960000000     0.493860000000     0.32729    
C105     C      0.693550000000     0.444230000000     0.433430000000    -0.0254413  
C106     C      0.746620000000     0.542420000000     0.411380000000    -0.102329   
C107     C      0.715080000000     0.454900000000     0.483840000000    -0.00645787 
C108     C      0.772700000000     0.553950000000     0.461260000000     0.324168   
C109     C      0.207150000000     0.424810000000     0.524690000000    -0.0194194  
C110     C      0.264140000000     0.522080000000     0.498000000000    -0.103351   
C111     C      0.184280000000     0.410710000000     0.474770000000    -0.0109511  
C112     C      0.242720000000     0.507540000000     0.448060000000     0.319152   
C113     C      0.968970000000     0.546920000000     0.701000000000    -0.0208297  
C114     C      0.935740000000     0.448660000000     0.710540000000    -0.104317   
C115     C      0.023460000000     0.556580000000     0.733180000000    -0.00735934 
C116     C      0.993210000000     0.458330000000     0.736460000000     0.321505   
C117     C      0.988820000000     0.409100000000     0.253940000000    -0.0204293  
C118     C      0.941300000000     0.467100000000     0.242680000000    -0.100969   
C119     C      0.030140000000     0.444620000000     0.215480000000    -0.00666713 
C120     C      0.986080000000     0.506170000000     0.208930000000     0.320357   
C121     C      0.829540000000     0.233600000000     0.874890000000    -0.0261203  
C122     C      0.841260000000     0.220880000000     0.960800000000    -0.0997902  
C123     C      0.775970000000     0.175110000000     0.882880000000    -0.0068773  
C124     C      0.775440000000     0.199250000000     0.963560000000     0.31846    
C125     C      0.208410000000     0.798630000000     0.059010000000    -0.02287    
C126     C      0.262630000000     0.746560000000     0.052780000000    -0.104101   
C127     C      0.150510000000     0.743210000000     0.055360000000    -0.00769458 
C128     C      0.218370000000     0.707580000000     0.087690000000     0.322831   
C129     C      0.690980000000     0.394730000000     0.964230000000    -0.0205193  
C130     C      0.747970000000     0.487910000000     0.928480000000    -0.108129   
C131     C      0.723790000000     0.413370000000     0.011200000000    -0.00941455 
C132     C      0.779360000000     0.508330000000     0.974970000000     0.328446   
C133     C      0.255010000000     0.481160000000     0.996690000000    -0.0203641  
C134     C      0.315040000000     0.574940000000     0.961390000000    -0.100424   
C135     C      0.226300000000     0.461400000000     0.949320000000    -0.0103637  
C136     C      0.281610000000     0.555800000000     0.914390000000     0.316201   
C137     C      0.637690000000     0.728230000000     0.571920000000    -0.0184898  
C138     C      0.703240000000     0.687590000000     0.597330000000    -0.103542   
C139     C      0.696720000000     0.782050000000     0.576310000000    -0.00900475 
C140     C      0.749930000000     0.729750000000     0.565870000000     0.32597    
C141     C      0.295230000000     0.229810000000     0.370760000000    -0.020385   
C142     C      0.303700000000     0.224200000000     0.457170000000    -0.0950286  
C143     C      0.244740000000     0.170210000000     0.380750000000    -0.00610028 
C144     C      0.237730000000     0.202490000000     0.455720000000     0.327739   
C145     C      0.665270000000     0.893370000000     0.442270000000    -0.0215811  
C146     C      0.699890000000     0.958060000000     0.370170000000    -0.110414   
C147     C      0.607930000000     0.857500000000     0.414380000000    -0.0136364  
C148     C      0.642030000000     0.920220000000     0.344970000000     0.325654   
C149     C      0.303130000000     0.043080000000     0.595480000000    -0.0152618  
C150     C      0.330080000000     0.092990000000     0.516860000000    -0.0868464  
C151     C      0.239870000000     0.006810000000     0.577670000000     0.0107411  
C152     C      0.266610000000     0.084130000000     0.514620000000     0.310909   
C153     C      0.964820000000     0.720730000000     0.452090000000    -0.0244619  
C154     C      0.039580000000     0.745710000000     0.393120000000    -0.0905777  
C155     C      0.951090000000     0.760430000000     0.420780000000     0.0066818  
C156     C      0.057760000000     0.804700000000     0.402830000000     0.31652    
C157     C      0.939790000000     0.218520000000     0.477310000000    -0.0186021  
C158     C      0.931810000000     0.213190000000     0.563280000000    -0.101787   
C159     C      0.885920000000     0.163160000000     0.476000000000    -0.00127001 
C160     C      0.884700000000     0.152290000000     0.561440000000     0.317012   
C161     C      0.989770000000     0.005380000000     0.732950000000    -0.020965   
C162     C      0.905590000000     0.910920000000     0.743650000000    -0.0996068  
C163     C      0.954120000000     0.019430000000     0.695050000000    -0.000324978
C164     C      0.870990000000     0.924550000000     0.702920000000     0.320384   
C165     C      0.031740000000     0.064840000000     0.244920000000    -0.0139275  
C166     C      0.085430000000     0.012440000000     0.258110000000    -0.101766   
C167     C      0.014560000000     0.049570000000     0.195240000000    -0.00785939 
C168     C      0.064640000000     0.991470000000     0.210500000000     0.322398   
C169     C      0.711930000000     0.776260000000     0.961760000000    -0.0278365  
C170     C      0.777260000000     0.736410000000     0.958540000000    -0.10848    
C171     C      0.700620000000     0.753270000000     0.012700000000    -0.00626761 
C172     C      0.769210000000     0.718500000000     0.010310000000     0.321156   
C173     C      0.238910000000     0.259790000000     0.930700000000    -0.0136462  
C174     C      0.302600000000     0.218790000000     0.933750000000    -0.103674   
C175     C      0.229640000000     0.245520000000     0.982700000000    -0.00967512 
C176     C      0.291970000000     0.201860000000     0.985660000000     0.322707   
C177     C      0.785650000000     0.058590000000     0.001500000000    -0.0218839  
C178     C      0.755230000000     0.020980000000     0.083080000000    -0.102428   
C179     C      0.845520000000     0.091770000000     0.027310000000    -0.00428786 
C180     C      0.811790000000     0.016550000000     0.091330000000     0.323094   
C181     C      0.197000000000     0.906750000000     0.929610000000    -0.0104611  
C182     C      0.230400000000     0.978710000000     0.861150000000    -0.105744   
C183     C      0.142940000000     0.872390000000     0.898580000000    -0.0150149  
C184     C      0.171070000000     0.943120000000     0.835730000000     0.323185   
C185     C      0.915150000000     0.671320000000     0.005830000000    -0.0108705  
C186     C      0.018250000000     0.718250000000     0.983120000000    -0.107866   
C187     C      0.911770000000     0.722510000000     0.995450000000    -0.00772903 
C188     C      0.018420000000     0.771470000000     0.976640000000     0.325454   
C189     C      0.039020000000     0.257120000000     0.008060000000    -0.0223012  
C190     C      0.992540000000     0.250400000000     0.927770000000    -0.102916   
C191     C      0.094170000000     0.264970000000     0.987650000000    -0.00332147 
C192     C      0.048190000000     0.257550000000     0.908690000000     0.321436   
F1       F      0.486220000000     0.363310000000     0.778960000000    -0.433353   
F2       F      0.500790000000     0.600170000000     0.161720000000    -0.432799   
F3       F      0.353220000000     0.719490000000     0.435320000000    -0.403368   
F4       F      0.426490000000     0.256970000000     0.394330000000    -0.443831   
F5       F      0.547290000000     0.105650000000     0.752500000000    -0.439791   
F6       F      0.454730000000     0.878360000000     0.184580000000    -0.432243   
F7       F      0.643930000000     0.845110000000     0.894600000000    -0.44271    
F8       F      0.545950000000     0.283840000000     0.093100000000    -0.44435    
F9       F      0.714450000000     0.196670000000     0.553800000000    -0.438227   
F10      F      0.304160000000     0.739840000000     0.499150000000    -0.4238     
F11      F      0.828390000000     0.597960000000     0.459930000000    -0.44923    
F12      F      0.242160000000     0.550480000000     0.420660000000    -0.438882   
F13      F      0.984080000000     0.412290000000     0.764430000000    -0.435122   
F14      F      0.960610000000     0.531880000000     0.179610000000    -0.434243   
F15      F      0.757920000000     0.166420000000     0.004220000000    -0.461311   
F16      F      0.223560000000     0.661260000000     0.097560000000    -0.432192   
F17      F      0.834720000000     0.550060000000     0.965980000000    -0.45693    
F18      F      0.275750000000     0.597300000000     0.888810000000    -0.438288   
F19      F      0.804360000000     0.740060000000     0.586250000000    -0.439183   
F20      F      0.217750000000     0.177610000000     0.498720000000    -0.414299   
F21      F      0.626720000000     0.949140000000     0.309840000000    -0.425858   
F22      F      0.266690000000     0.122510000000     0.539080000000    -0.412599   
F23      F      0.094900000000     0.818650000000     0.441960000000    -0.455163   
F24      F      0.893160000000     0.122640000000     0.599860000000    -0.439133   
F25      F      0.837020000000     0.879420000000     0.678660000000    -0.43214    
F26      F      0.109180000000     0.986900000000     0.193500000000    -0.434077   
F27      F      0.779480000000     0.675390000000     0.023130000000    -0.45968    
F28      F      0.293830000000     0.154350000000     0.997980000000    -0.454493   
F29      F      0.832340000000     0.024910000000     0.136770000000    -0.437919   
F30      F      0.153100000000     0.975340000000     0.806950000000    -0.446211   
F31      F      0.071550000000     0.810420000000     0.994860000000    -0.461924   
F32      F      0.035100000000     0.232430000000     0.868250000000    -0.442203   
H1       H      0.056260000000     0.005030000000     0.870490000000     0.209694   
H2       H      0.941840000000     0.077540000000     0.960270000000     0.191298   
H3       H      0.900550000000     0.869480000000     0.004050000000     0.200702   
H4       H      0.113050000000     0.030820000000     0.053810000000     0.21126    
H5       H      0.929700000000     0.113510000000     0.867230000000     0.153707   
H6       H      0.849690000000     0.038610000000     0.923670000000     0.195029   
H7       H      0.785830000000     0.899700000000     0.038080000000     0.144424   
H8       H      0.892320000000     0.867570000000     0.097470000000     0.197385   
H9       H      0.094680000000     0.899610000000     0.073570000000     0.157779   
H10      H      0.172190000000     0.980530000000     0.034090000000     0.205192   
H11      H      0.171610000000     0.097710000000     0.880920000000     0.132598   
H12      H      0.099030000000     0.121950000000     0.830340000000     0.198862   
H13      H      0.936980000000     0.844750000000     0.123400000000     0.217723   
H14      H      0.221910000000     0.013070000000     0.994260000000     0.22418    
H15      H      0.052630000000     0.146300000000     0.814800000000     0.230917   
H16      H      0.798320000000     0.976080000000     0.913190000000     0.227472   
H17      H      0.827770000000     0.889010000000     0.444080000000     0.195519   
H18      H      0.028790000000     0.066960000000     0.385370000000     0.195512   
H19      H      0.980010000000     0.043990000000     0.562160000000     0.20322    
H20      H      0.038910000000     0.902210000000     0.504590000000     0.200369   
H21      H      0.937800000000     0.082980000000     0.342260000000     0.130918   
H22      H      0.991910000000     0.156760000000     0.402100000000     0.194716   
H23      H      0.099850000000     0.132830000000     0.549770000000     0.157459   
H24      H      0.106070000000     0.060080000000     0.619110000000     0.211127   
H25      H      0.978580000000     0.872510000000     0.617440000000     0.164608   
H26      H      0.983800000000     0.808980000000     0.522600000000     0.208366   
H27      H      0.826580000000     0.801270000000     0.410580000000     0.130432   
H28      H      0.858210000000     0.880870000000     0.336970000000     0.202144   
H29      H      0.099690000000     0.003070000000     0.647740000000     0.219545   
H30      H      0.913720000000     0.769400000000     0.535030000000     0.237979   
H31      H      0.827980000000     0.918050000000     0.311750000000     0.215975   
H32      H      0.064810000000     0.189200000000     0.411680000000     0.203535   
H33      H      0.918810000000     0.421730000000     0.065910000000     0.204807   
H34      H      0.916320000000     0.441450000000     0.874800000000     0.197577   
H35      H      0.061270000000     0.619390000000     0.967690000000     0.196056   
H36      H      0.110530000000     0.453900000000     0.987470000000     0.193407   
H37      H      0.806530000000     0.379670000000     0.887370000000     0.132744   
H38      H      0.869710000000     0.551150000000     0.869600000000     0.225578   
H39      H      0.071960000000     0.654760000000     0.871410000000     0.129294   
H40      H      0.170940000000     0.667720000000     0.923370000000     0.193052   
H41      H      0.184110000000     0.545500000000     0.058630000000     0.162326   
H42      H      0.127850000000     0.406330000000     0.067160000000     0.193622   
H43      H      0.924810000000     0.320990000000     0.079370000000     0.140521   
H44      H      0.780350000000     0.314980000000     0.015220000000     0.207448   
H45      H      0.228370000000     0.661010000000     0.946920000000     0.229191   
H46      H      0.129350000000     0.444570000000     0.106660000000     0.206602   
H47      H      0.757710000000     0.318710000000     0.959990000000     0.199264   
H48      H      0.876190000000     0.512150000000     0.835090000000     0.203812   
H49      H      0.885060000000     0.445330000000     0.560240000000     0.204196   
H50      H      0.901370000000     0.429900000000     0.379160000000     0.197413   
H51      H      0.066200000000     0.609330000000     0.458190000000     0.201151   
H52      H      0.063840000000     0.419010000000     0.515640000000     0.202039   
H53      H      0.795600000000     0.398580000000     0.376540000000     0.12848    
H54      H      0.881080000000     0.551740000000     0.356440000000     0.217091   
H55      H      0.102040000000     0.618220000000     0.369600000000     0.140804   
H56      H      0.207780000000     0.611830000000     0.445980000000     0.257415   
H57      H      0.165080000000     0.533970000000     0.577870000000     0.145102   
H58      H      0.064720000000     0.390200000000     0.608490000000     0.206535   
H59      H      0.859190000000     0.333560000000     0.589930000000     0.14388    
H60      H      0.737650000000     0.347500000000     0.497860000000     0.204464   
H61      H      0.228110000000     0.609940000000     0.501990000000     0.227472   
H62      H      0.063250000000     0.435530000000     0.638610000000     0.217061   
H63      H      0.730460000000     0.346950000000     0.440600000000     0.19427    
H64      H      0.918700000000     0.558680000000     0.311180000000     0.216603   
H65      H      0.475740000000     0.930660000000     0.871240000000     0.188227   
H66      H      0.421260000000     0.891110000000     0.051320000000     0.210308   
H67      H      0.629280000000     0.060530000000     0.005980000000     0.21625    
H68      H      0.434850000000     0.074580000000     0.945670000000     0.200999   
H69      H      0.418580000000     0.786940000000     0.012930000000     0.138866   
H70      H      0.517930000000     0.853770000000     0.069300000000     0.201968   
H71      H      0.615840000000     0.058000000000     0.104840000000     0.137382   
H72      H      0.646190000000     0.172210000000     0.043510000000     0.212266   
H73      H      0.571070000000     0.179780000000     0.903940000000     0.150028   
H74      H      0.418890000000     0.103000000000     0.856020000000     0.212612   
H75      H      0.388600000000     0.931520000000     0.817800000000     0.13111    
H76      H      0.328660000000     0.844530000000     0.885090000000     0.202848   
H77      H      0.627760000000     0.211780000000     0.006440000000     0.205567   
H78      H      0.481360000000     0.119530000000     0.832210000000     0.23691    
H79      H      0.377690000000     0.830180000000     0.867550000000     0.197887   
H80      H      0.554690000000     0.883830000000     0.116890000000     0.2354     
H81      H      0.344910000000     0.929990000000     0.403850000000     0.202247   
H82      H      0.437990000000     0.971160000000     0.581500000000     0.201606   
H83      H      0.539290000000     0.903290000000     0.475220000000     0.199013   
H84      H      0.557600000000     0.099570000000     0.427010000000     0.203137   
H85      H      0.322250000000     0.853430000000     0.570970000000     0.142358   
H86      H      0.417690000000     0.876650000000     0.630340000000     0.19352    
H87      H      0.603980000000     0.931870000000     0.590360000000     0.149807   
H88      H      0.653540000000     0.982480000000     0.515060000000     0.204923   
H89      H      0.635710000000     0.078960000000     0.361310000000     0.144282   
H90      H      0.522920000000     0.109480000000     0.320250000000     0.195897   
H91      H      0.358130000000     0.067530000000     0.390670000000     0.143421   
H92      H      0.286060000000     0.988780000000     0.451170000000     0.208149   
H93      H      0.697700000000     0.017040000000     0.471940000000     0.213669   
H94      H      0.458120000000     0.107780000000     0.308500000000     0.207911   
H95      H      0.244100000000     0.942600000000     0.491190000000     0.22091    
H96      H      0.446280000000     0.835790000000     0.629260000000     0.208114   
H97      H      0.426580000000     0.465660000000     0.061540000000     0.208139   
H98      H      0.418430000000     0.438530000000     0.876860000000     0.192057   
H99      H      0.599950000000     0.614550000000     0.945370000000     0.201322   
H100     H      0.583990000000     0.419970000000     0.005650000000     0.209774   
H101     H      0.318180000000     0.436400000000     0.882580000000     0.13737    
H102     H      0.414870000000     0.570530000000     0.842990000000     0.217534   
H103     H      0.619000000000     0.620240000000     0.848910000000     0.132607   
H104     H      0.723210000000     0.603100000000     0.914230000000     0.204604   
H105     H      0.701360000000     0.537540000000     0.057170000000     0.167513   
H106     H      0.606230000000     0.419430000000     0.106210000000     0.219708   
H107     H      0.385970000000     0.347280000000     0.077240000000     0.137529   
H108     H      0.283640000000     0.369340000000     0.024320000000     0.193899   
H109     H      0.756080000000     0.605030000000     0.966610000000     0.245121   
H110     H      0.554610000000     0.396200000000     0.144570000000     0.220547   
H111     H      0.255180000000     0.370140000000     0.970540000000     0.195695   
H112     H      0.414610000000     0.524180000000     0.813080000000     0.202324   
H113     H      0.390880000000     0.418710000000     0.563560000000     0.204988   
H114     H      0.392940000000     0.445490000000     0.373800000000     0.195021   
H115     H      0.550550000000     0.612830000000     0.472730000000     0.198257   
H116     H      0.576170000000     0.434550000000     0.486140000000     0.198319   
H117     H      0.279150000000     0.397160000000     0.386130000000     0.131206   
H118     H      0.361280000000     0.564750000000     0.375630000000     0.23325    
H119     H      0.571970000000     0.646750000000     0.377530000000     0.129418   
H120     H      0.681660000000     0.648440000000     0.433170000000     0.202183   
H121     H      0.688090000000     0.553330000000     0.551580000000     0.154342   
H122     H      0.591740000000     0.392140000000     0.572640000000     0.201678   
H123     H      0.382740000000     0.307120000000     0.567130000000     0.146666   
H124     H      0.251740000000     0.321420000000     0.511880000000     0.214662   
H125     H      0.720850000000     0.637540000000     0.478080000000     0.220061   
H126     H      0.585860000000     0.424660000000     0.613750000000     0.212755   
H127     H      0.231150000000     0.325290000000     0.456120000000     0.201277   
H128     H      0.367560000000     0.532550000000     0.334470000000     0.214757   
H129     H      0.413630000000     0.391580000000     0.733990000000     0.082578   
H130     H      0.456200000000     0.498620000000     0.733340000000     0.0407233  
H131     H      0.565110000000     0.545750000000     0.757930000000     0.0525039  
H132     H      0.440090000000     0.368970000000     0.692730000000     0.0924497  
H133     H      0.539690000000     0.412120000000     0.728780000000    -0.00210564 
H134     H      0.502630000000     0.540280000000     0.687610000000     0.0472833  
H135     H      0.577260000000     0.511800000000     0.717190000000     0.040998   
H136     H      0.435100000000     0.520090000000     0.215980000000     0.0852803  
H137     H      0.470650000000     0.441620000000     0.222370000000     0.0489191  
H138     H      0.570210000000     0.480920000000     0.191160000000     0.0443416  
H139     H      0.478610000000     0.574610000000     0.251490000000     0.0920018  
H140     H      0.565060000000     0.606120000000     0.209590000000     0.000624712
H141     H      0.527760000000     0.450110000000     0.266060000000     0.0504569  
H142     H      0.597700000000     0.535530000000     0.226440000000     0.0428425  
H143     H      0.467290000000     0.749610000000     0.428740000000     0.0912127  
H144     H      0.528170000000     0.762540000000     0.510820000000     0.0361902  
H145     H      0.461630000000     0.747950000000     0.571160000000     0.0448127  
H146     H      0.420020000000     0.681570000000     0.413980000000     0.0983326  
H147     H      0.359310000000     0.663180000000     0.480690000000     0.0031946  
H148     H      0.515070000000     0.702840000000     0.546680000000     0.0471428  
H149     H      0.412960000000     0.680590000000     0.556130000000     0.0468264  
H150     H      0.534380000000     0.276770000000     0.388170000000     0.0827765  
H151     H      0.592890000000     0.292210000000     0.462000000000     0.0337892  
H152     H      0.535470000000     0.277080000000     0.529690000000     0.0419572  
H153     H      0.484860000000     0.209750000000     0.372530000000     0.0825234  
H154     H      0.422030000000     0.193930000000     0.436620000000    -0.0136099  
H155     H      0.590390000000     0.237140000000     0.499570000000     0.0554006  
H156     H      0.486060000000     0.208600000000     0.517000000000     0.0540026  
H157     H      0.621550000000     0.111790000000     0.698040000000     0.0986388  
H158     H      0.648130000000     0.035880000000     0.705860000000     0.0543519  
H159     H      0.603360000000     0.980720000000     0.772810000000     0.0506883  
H160     H      0.556180000000     0.102770000000     0.664930000000     0.0959629  
H161     H      0.493390000000     0.035430000000     0.723000000000    -0.00349912 
H162     H      0.595770000000     0.972120000000     0.685780000000     0.0474421  
H163     H      0.531150000000     0.951390000000     0.745040000000     0.0337314  
H164     H      0.484780000000     0.934660000000     0.252260000000     0.111782   
H165     H      0.443980000000     0.014910000000     0.230870000000     0.0519736  
H166     H      0.378130000000     0.991290000000     0.162670000000     0.0483727  
H167     H      0.426080000000     0.870440000000     0.272120000000     0.100511   
H168     H      0.372590000000     0.857190000000     0.199840000000    -0.000328668
H169     H      0.369530000000     0.987260000000     0.246920000000     0.0478275  
H170     H      0.331340000000     0.924160000000     0.187430000000     0.0469241  
H171     H      0.599170000000     0.752780000000     0.862920000000     0.0851305  
H172     H      0.612590000000     0.783680000000     0.972530000000     0.0657828  
H173     H      0.532820000000     0.799170000000     0.991100000000     0.0385548  
H174     H      0.523460000000     0.736460000000     0.860120000000     0.0618301  
H175     H      0.574320000000     0.832860000000     0.850330000000    -0.0103581  
H176     H      0.553010000000     0.727300000000     0.000300000000     0.0562071  
H177     H      0.483240000000     0.751170000000     0.950840000000     0.0513823  
H178     H      0.468270000000     0.189230000000     0.114420000000     0.0895263  
H179     H      0.380960000000     0.167410000000     0.053540000000     0.0797851  
H180     H      0.407750000000     0.223290000000     0.978750000000     0.0584602  
H181     H      0.526210000000     0.178740000000     0.100600000000     0.0801049  
H182     H      0.557540000000     0.250910000000     0.040540000000    -0.0130129  
H183     H      0.374680000000     0.128820000000     0.007110000000     0.0730294  
H184     H      0.464980000000     0.207520000000     0.973670000000     0.0442631  
H185     H      0.790500000000     0.185480000000     0.514080000000     0.083768   
H186     H      0.770340000000     0.174860000000     0.426490000000     0.0519839  
H187     H      0.684060000000     0.187660000000     0.399300000000     0.0311908  
H188     H      0.827780000000     0.251950000000     0.532970000000     0.0851855  
H189     H      0.739390000000     0.262830000000     0.508600000000    -0.00788614 
H190     H      0.793000000000     0.234890000000     0.387900000000     0.0390686  
H191     H      0.720750000000     0.253860000000     0.418310000000     0.0250385  
H192     H      0.248050000000     0.751120000000     0.561840000000     0.0788598  
H193     H      0.173250000000     0.780950000000     0.536410000000     0.060577   
H194     H      0.175950000000     0.800220000000     0.451730000000     0.0806508  
H195     H      0.228440000000     0.681890000000     0.561780000000     0.0778647  
H196     H      0.221990000000     0.691140000000     0.474080000000     6.59865e-05
H197     H      0.103580000000     0.734360000000     0.511330000000     0.0660555  
H198     H      0.148960000000     0.730790000000     0.443940000000     0.0390593  
H199     H      0.777970000000     0.538510000000     0.391560000000     0.0784719  
H200     H      0.724980000000     0.438190000000     0.415950000000     0.0483291  
H201     H      0.716130000000     0.419060000000     0.502300000000     0.0369899  
H202     H      0.741830000000     0.577100000000     0.394030000000     0.0830118  
H203     H      0.745430000000     0.564760000000     0.479270000000    -0.0136368  
H204     H      0.650710000000     0.406510000000     0.431770000000     0.0393664  
H205     H      0.682290000000     0.459040000000     0.501100000000     0.0341324  
H206     H      0.233810000000     0.531400000000     0.513180000000     0.0746823  
H207     H      0.174960000000     0.430800000000     0.541300000000     0.040422   
H208     H      0.140040000000     0.374550000000     0.474940000000     0.0407189  
H209     H      0.308030000000     0.558690000000     0.498550000000     0.0856907  
H210     H      0.274710000000     0.499460000000     0.433560000000    -0.00143245 
H211     H      0.209870000000     0.390430000000     0.545040000000     0.0443402  
H212     H      0.213360000000     0.400090000000     0.459170000000     0.0422965  
H213     H      0.903560000000     0.442900000000     0.735400000000     0.0759782  
H214     H      0.933820000000     0.542860000000     0.721810000000     0.044989   
H215     H      0.035280000000     0.590640000000     0.754200000000     0.05269    
H216     H      0.915720000000     0.410840000000     0.692820000000     0.0960992  
H217     H      0.026190000000     0.466180000000     0.711580000000    -0.00233459 
H218     H      0.980010000000     0.582330000000     0.675480000000     0.0494163  
H219     H      0.061150000000     0.569410000000     0.711570000000     0.0425866  
H220     H      0.902970000000     0.435920000000     0.223580000000     0.0796068  
H221     H      0.950260000000     0.373990000000     0.239010000000     0.0452976  
H222     H      0.038530000000     0.418100000000     0.196390000000     0.0480482  
H223     H      0.924230000000     0.488440000000     0.260230000000     0.0832172  
H224     H      0.024370000000     0.537450000000     0.227930000000     0.010481   
H225     H      0.012330000000     0.393380000000     0.279740000000     0.0487867  
H226     H      0.072980000000     0.473680000000     0.231480000000     0.0486186  
H227     H      0.850390000000     0.186910000000     0.959920000000     0.0693278  
H228     H      0.860810000000     0.232480000000     0.852960000000     0.0556924  
H229     H      0.792390000000     0.145480000000     0.888130000000     0.0431459  
H230     H      0.865600000000     0.241160000000     0.992350000000     0.0855985  
H231     H      0.766460000000     0.233260000000     0.964320000000    -0.00754341 
H232     H      0.812520000000     0.259780000000     0.855840000000     0.0447766  
H233     H      0.746340000000     0.165950000000     0.851190000000     0.0491859  
H234     H      0.253890000000     0.727220000000     0.020070000000     0.0918242  
H235     H      0.201410000000     0.830480000000     0.038030000000     0.0602644  
H236     H      0.134420000000     0.741830000000     0.018590000000     0.0430177  
H237     H      0.307180000000     0.755230000000     0.067270000000     0.0899234  
H238     H      0.228150000000     0.726820000000     0.120580000000     0.00516278 
H239     H      0.217620000000     0.808980000000     0.095400000000     0.0532556  
H240     H      0.117170000000     0.741860000000     0.076580000000     0.0582923  
H241     H      0.774650000000     0.476300000000     0.910480000000     0.0869059  
H242     H      0.713990000000     0.379190000000     0.946240000000     0.0456277  
H243     H      0.729170000000     0.379870000000     0.030560000000     0.0462514  
H244     H      0.745290000000     0.521030000000     0.905890000000     0.0812463  
H245     H      0.756070000000     0.524460000000     0.991420000000    -0.0141243  
H246     H      0.646080000000     0.360830000000     0.970120000000     0.0462277  
H247     H      0.695820000000     0.420920000000     0.031760000000     0.0455314  
H248     H      0.293710000000     0.592880000000     0.978420000000     0.0951501  
H249     H      0.226850000000     0.491980000000     0.013350000000     0.0414723  
H250     H      0.182180000000     0.425720000000     0.954010000000     0.029682   
H251     H      0.360700000000     0.607140000000     0.955200000000     0.0872969  
H252     H      0.309000000000     0.546470000000     0.894790000000     0.00314383 
H253     H      0.255750000000     0.447480000000     0.019660000000     0.0406481  
H254     H      0.252110000000     0.447770000000     0.933010000000     0.0393605  
H255     H      0.712040000000     0.701520000000     0.632550000000     0.0924162  
H256     H      0.607310000000     0.725070000000     0.597190000000     0.0430826  
H257     H      0.707540000000     0.790190000000     0.613220000000     0.0676824  
H258     H      0.705240000000     0.649260000000     0.600650000000     0.080522   
H259     H      0.744180000000     0.713030000000     0.532250000000    -0.00407754 
H260     H      0.617710000000     0.730060000000     0.536670000000     0.0349401  
H261     H      0.690300000000     0.815430000000     0.557870000000     0.04664    
H262     H      0.314030000000     0.190510000000     0.461130000000     0.0993655  
H263     H      0.327610000000     0.229880000000     0.349320000000     0.075519   
H264     H      0.264420000000     0.143250000000     0.389270000000     0.049729   
H265     H      0.325470000000     0.247450000000     0.487850000000     0.0997103  
H266     H      0.227490000000     0.236160000000     0.447900000000    -0.0102338  
H267     H      0.275360000000     0.253020000000     0.350420000000     0.0357009  
H268     H      0.215930000000     0.157230000000     0.348880000000     0.0377771  
H269     H      0.696900000000     0.992700000000     0.380450000000     0.0934637  
H270     H      0.656640000000     0.917150000000     0.464290000000     0.0375351  
H271     H      0.571310000000     0.835350000000     0.437940000000     0.0342774  
H272     H      0.735000000000     0.974460000000     0.345320000000     0.0948545  
H273     H      0.648670000000     0.890580000000     0.328770000000     0.00129008 
H274     H      0.677800000000     0.866190000000     0.465370000000     0.0406875  
H275     H      0.613370000000     0.826730000000     0.398910000000     0.0431477  
H276     H      0.361970000000     0.136790000000     0.516680000000     0.0869032  
H277     H      0.305270000000     0.077570000000     0.611070000000     0.0772589  
H278     H      0.210580000000     0.000090000000     0.605320000000     0.0528668  
H279     H      0.335510000000     0.078880000000     0.484920000000     0.0509475  
H280     H      0.253810000000     0.091100000000     0.477980000000     0.00274013 
H281     H      0.316380000000     0.020320000000     0.623430000000     0.0485665  
H282     H      0.234800000000     0.967080000000     0.571590000000     0.0395977  
H283     H      0.079650000000     0.741920000000     0.392720000000     0.0744556  
H284     H      0.989360000000     0.739090000000     0.484230000000     0.0643635  
H285     H      0.921790000000     0.768030000000     0.439400000000     0.0378897  
H286     H      0.016670000000     0.737540000000     0.358430000000     0.0663495  
H287     H      0.081490000000     0.832590000000     0.373150000000    -0.00493538 
H288     H      0.922560000000     0.684930000000     0.461540000000     0.0885417  
H289     H      0.927050000000     0.742230000000     0.388430000000     0.0464506  
H290     H      0.974470000000     0.215850000000     0.576430000000     0.0894     
H291     H      0.980490000000     0.215310000000     0.478800000000     0.0538204  
H292     H      0.885440000000     0.143770000000     0.445130000000     0.0348611  
H293     H      0.918610000000     0.230600000000     0.588570000000     0.088243   
H294     H      0.840710000000     0.148460000000     0.562970000000     0.00176736 
H295     H      0.937690000000     0.241170000000     0.444070000000     0.0511686  
H296     H      0.845760000000     0.166980000000     0.472340000000     0.0398831  
H297     H      0.928220000000     0.891150000000     0.731120000000     0.0926061  
H298     H      0.017220000000     0.992410000000     0.717520000000     0.0575173  
H299     H      0.983820000000     0.051330000000     0.669870000000     0.0440977  
H300     H      0.874050000000     0.881990000000     0.769220000000     0.0893472  
H301     H      0.841190000000     0.936010000000     0.716710000000     0.00556328 
H302     H      0.020360000000     0.042210000000     0.750640000000     0.0523056  
H303     H      0.929910000000     0.036040000000     0.710190000000     0.0582198  
H304     H      0.128830000000     0.049670000000     0.256580000000     0.0882532  
H305     H      0.072500000000     0.104490000000     0.245490000000     0.0400361  
H306     H      0.019440000000     0.086090000000     0.173220000000     0.0555436  
H307     H      0.090710000000     0.981040000000     0.281460000000     0.0906332  
H308     H      0.025420000000     0.950750000000     0.213830000000     0.00106982 
H309     H      0.996660000000     0.070140000000     0.257680000000     0.0468532  
H310     H      0.967420000000     0.018530000000     0.193120000000     0.0570131  
H311     H      0.744120000000     0.703450000000     0.937770000000     0.0731771  
H312     H      0.676320000000     0.747140000000     0.939350000000     0.0534063  
H313     H      0.656170000000     0.743190000000     0.021500000000     0.0483246  
H314     H      0.821020000000     0.745040000000     0.949420000000     0.0796988  
H315     H      0.802310000000     0.752340000000     0.030370000000    -0.0160015  
H316     H      0.709640000000     0.814370000000     0.955920000000     0.0797616  
H317     H      0.732160000000     0.784720000000     0.035500000000     0.0392835  
H318     H      0.268780000000     0.185980000000     0.913210000000     0.089486   
H319     H      0.204180000000     0.226150000000     0.911340000000     0.0467062  
H320     H      0.186350000000     0.239530000000     0.989640000000     0.0455192  
H321     H      0.345540000000     0.225100000000     0.924700000000     0.0852307  
H322     H      0.328110000000     0.233480000000     0.005930000000    -0.0102198  
H323     H      0.233910000000     0.295850000000     0.918410000000     0.0421905  
H324     H      0.263100000000     0.279120000000     0.002570000000     0.0405947  
H325     H      0.761620000000     0.057510000000     0.098030000000     0.100634   
H326     H      0.774370000000     0.087150000000     0.979360000000     0.0647047  
H327     H      0.843950000000     0.122650000000     0.045830000000     0.0627264  
H328     H      0.720150000000     0.985070000000     0.101700000000     0.092432   
H329     H      0.799740000000     0.974570000000     0.085660000000     0.00190014 
H330     H      0.789240000000     0.032310000000     0.978970000000     0.0480476  
H331     H      0.879860000000     0.113510000000     0.001770000000     0.0252646  
H332     H      0.229920000000     0.014050000000     0.872650000000     0.101071   
H333     H      0.184860000000     0.925040000000     0.954780000000     0.0595531  
H334     H      0.106500000000     0.842960000000     0.919600000000     0.0723911  
H335     H      0.264770000000     0.994720000000     0.835660000000     0.087493   
H336     H      0.177380000000     0.917690000000     0.813560000000    -0.00223844 
H337     H      0.211820000000     0.879260000000     0.949380000000     0.04983    
H338     H      0.153650000000     0.848750000000     0.877690000000     0.042931   
H339     H      0.035690000000     0.713380000000     0.018660000000     0.0886257  
H340     H      0.927660000000     0.666790000000     0.043060000000     0.0690976  
H341     H      0.883460000000     0.723360000000     0.020400000000     0.068335   
H342     H      0.047790000000     0.718900000000     0.958150000000     0.0657253  
H343     H      0.013890000000     0.781610000000     0.938970000000    -0.00407678 
H344     H      0.871000000000     0.637000000000     0.998240000000     0.0846541  
H345     H      0.892550000000     0.722930000000     0.959730000000     0.051918   
H346     H      0.961160000000     0.206670000000     0.934220000000     0.0679183  
H347     H      0.009940000000     0.213770000000     0.018480000000     0.054975   
H348     H      0.118310000000     0.250770000000     0.014030000000     0.0403376  
H349     H      0.970160000000     0.267200000000     0.901950000000     0.0962182  
H350     H      0.078400000000     0.301230000000     0.900440000000     0.00314548 
H351     H      0.051390000000     0.279310000000     0.039540000000     0.0438073  
H352     H      0.124020000000     0.308680000000     0.979020000000     0.0259207  
N1       N      0.525890000000     0.458740000000     0.771700000000    -0.193822   
N2       N      0.466940000000     0.454210000000     0.685920000000    -0.156615   
N3       N      0.535970000000     0.536730000000     0.173790000000    -0.193649   
N4       N      0.495090000000     0.506860000000     0.262870000000    -0.15449    
N5       N      0.414080000000     0.740710000000     0.505210000000    -0.18213    
N6       N      0.471320000000     0.690690000000     0.478530000000    -0.157356   
N7       N      0.479910000000     0.266680000000     0.467400000000    -0.197438   
N8       N      0.534040000000     0.215600000000     0.437300000000    -0.157373   
N9       N      0.561200000000     0.029460000000     0.765750000000    -0.190775   
N10      N      0.573770000000     0.036000000000     0.670220000000    -0.15111    
N11      N      0.413790000000     0.937280000000     0.169730000000    -0.190144   
N12      N      0.408770000000     0.936910000000     0.266410000000    -0.148757   
N13      N      0.552740000000     0.822510000000     0.920190000000    -0.192586   
N14      N      0.557570000000     0.723930000000     0.926700000000    -0.146575   
N15      N      0.480100000000     0.256970000000     0.027460000000    -0.190249   
N16      N      0.449220000000     0.148310000000     0.054650000000    -0.154109   
N17      N      0.695680000000     0.192200000000     0.473190000000    -0.200289   
N18      N      0.815500000000     0.247620000000     0.459420000000    -0.155773   
N19      N      0.237470000000     0.770800000000     0.468790000000    -0.192286   
N20      N      0.160280000000     0.701530000000     0.537460000000    -0.154936   
N21      N      0.772300000000     0.505340000000     0.486120000000    -0.196232   
N22      N      0.690150000000     0.491630000000     0.411060000000    -0.156236   
N23      N      0.184690000000     0.458060000000     0.447870000000    -0.195274   
N24      N      0.264350000000     0.475060000000     0.524810000000    -0.157778   
N25      N      0.013740000000     0.506500000000     0.761910000000    -0.194469   
N26      N      0.948110000000     0.496800000000     0.678700000000    -0.15586    
N27      N      0.005580000000     0.475420000000     0.185230000000    -0.193028   
N28      N      0.968760000000     0.440900000000     0.274680000000    -0.157243   
N29      N      0.742900000000     0.168730000000     0.923380000000    -0.193897   
N30      N      0.860690000000     0.256990000000     0.918380000000    -0.151773   
N31      N      0.159010000000     0.695700000000     0.069360000000    -0.189756   
N32      N      0.259450000000     0.797200000000     0.043430000000    -0.150463   
N33      N      0.780690000000     0.463720000000     0.005770000000    -0.195481   
N34      N      0.690010000000     0.440500000000     0.935690000000    -0.155715   
N35      N      0.223960000000     0.506170000000     0.920150000000    -0.190848   
N36      N      0.313910000000     0.529090000000     0.991540000000    -0.151102   
N37      N      0.746130000000     0.780220000000     0.557980000000    -0.18658    
N38      N      0.645640000000     0.680080000000     0.579070000000    -0.153421   
N39      N      0.209470000000     0.164560000000     0.419500000000    -0.195545   
N40      N      0.325160000000     0.256460000000     0.413400000000    -0.134215   
N41      N      0.595280000000     0.890950000000     0.377550000000    -0.19194    
N42      N      0.713500000000     0.930380000000     0.412000000000    -0.152372   
N43      N      0.223580000000     0.030140000000     0.534350000000    -0.187413   
N44      N      0.343220000000     0.064210000000     0.557740000000    -0.146793   
N45      N      0.006150000000     0.810180000000     0.409760000000    -0.195786   
N46      N      0.000060000000     0.705700000000     0.427890000000    -0.138517   
N47      N      0.885730000000     0.130560000000     0.518700000000    -0.195853   
N48      N      0.940320000000     0.244840000000     0.517840000000    -0.150433   
N49      N      0.912040000000     0.970360000000     0.673080000000    -0.193471   
N50      N      0.949660000000     0.960780000000     0.764270000000    -0.15214    
N51      N      0.049310000000     0.027770000000     0.178740000000    -0.192078   
N52      N      0.042400000000     0.024390000000     0.274050000000    -0.155326   
N53      N      0.709590000000     0.705950000000     0.020660000000    -0.191658   
N54      N      0.768810000000     0.784010000000     0.948680000000    -0.151069   
N55      N      0.235420000000     0.197070000000     0.996580000000    -0.193484   
N56      N      0.297290000000     0.267650000000     0.922030000000    -0.155126   
N57      N      0.858380000000     0.055470000000     0.060700000000    -0.192411   
N58      N      0.738700000000     0.024270000000     0.033380000000    -0.143715   
N59      N      0.125890000000     0.907780000000     0.868300000000    -0.190988   
N60      N      0.244490000000     0.949710000000     0.901880000000    -0.152854   
N61      N      0.970190000000     0.769220000000     0.999530000000    -0.199232   
N62      N      0.958760000000     0.673380000000     0.977210000000    -0.156003   
N63      N      0.075770000000     0.235820000000     0.945330000000    -0.198951   
N64      N      0.008600000000     0.276010000000     0.971830000000    -0.15753    
O1       O      0.186060000000     0.109950000000     0.982230000000    -0.352967   
O2       O      0.139400000000     0.143840000000     0.016820000000    -0.35189    
O3       O      0.977320000000     0.013910000000     0.823300000000    -0.369772   
O4       O      0.941260000000     0.923350000000     0.838630000000    -0.365847   
O5       O      0.039630000000     0.154620000000     0.913900000000    -0.338751   
O6       O      0.060350000000     0.161310000000     0.990860000000    -0.385596   
O7       O      0.128000000000     0.972400000000     0.905730000000    -0.37848    
O8       O      0.040020000000     0.899040000000     0.890490000000    -0.350113   
O9       O      0.189600000000     0.079120000000     0.901810000000    -0.316283   
O10      O      0.183250000000     0.000850000000     0.004570000000    -0.526653   
O11      O      0.063020000000     0.122050000000     0.834380000000    -0.52062    
O12      O      0.921630000000     0.079380000000     0.855460000000    -0.341762   
O13      O      0.074470000000     0.081370000000     0.949970000000    -0.504584   
O14      O      0.040650000000     0.003340000000     0.899350000000    -0.639823   
O15      O      0.989930000000     0.844250000000     0.030880000000    -0.371553   
O16      O      0.956990000000     0.831870000000     0.955610000000    -0.383323   
O17      O      0.894190000000     0.998850000000     0.055380000000    -0.356761   
O18      O      0.954010000000     0.086350000000     0.042010000000    -0.364288   
O19      O      0.815870000000     0.871650000000     0.963710000000    -0.379702   
O20      O      0.862410000000     0.841060000000     0.924910000000    -0.355071   
O21      O      0.035200000000     0.977680000000     0.119700000000    -0.34787    
O22      O      0.045890000000     0.062000000000     0.104530000000    -0.37963    
O23      O      0.929910000000     0.868590000000     0.100380000000    -0.52848    
O24      O      0.078420000000     0.911730000000     0.095570000000    -0.317499   
O25      O      0.787590000000     0.926450000000     0.012370000000    -0.326417   
O26      O      0.834320000000     0.000130000000     0.929360000000    -0.527619   
O27      O      0.927610000000     0.906040000000     0.993480000000    -0.635144   
O28      O      0.960150000000     0.984650000000     0.042310000000    -0.47683    
O29      O      0.043570000000     0.936100000000     0.978500000000    -0.495353   
O30      O      0.957070000000     0.052630000000     0.962710000000    -0.628569   
O31      O      0.081320000000     0.018750000000     0.030400000000    -0.646506   
O32      O      0.921790000000     0.971330000000     0.910670000000    -0.489629   
O33      O      0.959950000000     0.859810000000     0.408500000000    -0.367034   
O34      O      0.056990000000     0.902920000000     0.416990000000    -0.344911   
O35      O      0.808580000000     0.962050000000     0.394810000000    -0.362188   
O36      O      0.784830000000     0.942890000000     0.469860000000    -0.362298   
O37      O      0.974640000000     0.006630000000     0.325360000000    -0.372476   
O38      O      0.054510000000     0.996030000000     0.348470000000    -0.366809   
O39      O      0.827820000000     0.817130000000     0.517160000000    -0.346535   
O40      O      0.798170000000     0.872460000000     0.540140000000    -0.345625   
O41      O      0.838780000000     0.786030000000     0.439190000000    -0.335276   
O42      O      0.943700000000     0.802050000000     0.520010000000    -0.537973   
O43      O      0.854210000000     0.912930000000     0.335140000000    -0.529233   
O44      O      0.898080000000     0.051190000000     0.341790000000    -0.331585   
O45      O      0.957250000000     0.927950000000     0.410780000000    -0.468755   
O46      O      0.867970000000     0.914680000000     0.451940000000    -0.633533   
O47      O      0.973000000000     0.974330000000     0.622020000000    -0.382225   
O48      O      0.878850000000     0.953960000000     0.599160000000    -0.337393   
O49      O      0.120360000000     0.130410000000     0.449300000000    -0.347674   
O50      O      0.138320000000     0.077040000000     0.409640000000    -0.358732   
O51      O      0.954560000000     0.114300000000     0.497160000000    -0.383962   
O52      O      0.873440000000     0.044850000000     0.529620000000    -0.349225   
O53      O      0.128120000000     0.994500000000     0.552280000000    -0.3546     
O54      O      0.150860000000     0.011390000000     0.477050000000    -0.354846   
O55      O      0.090040000000     0.021410000000     0.621030000000    -0.516927   
O56      O      0.015660000000     0.887860000000     0.601660000000    -0.35003    
O57      O      0.076070000000     0.148210000000     0.532560000000    -0.333261   
O58      O      0.027030000000     0.158230000000     0.417760000000    -0.531457   
O59      O      0.977480000000     0.023370000000     0.537500000000    -0.630208   
O60      O      0.067050000000     0.034360000000     0.496330000000    -0.48751    
O61      O      0.925660000000     0.911180000000     0.538940000000    -0.487407   
O62      O      0.009640000000     0.039720000000     0.409980000000    -0.631594   
O63      O      0.017540000000     0.921920000000     0.496870000000    -0.624181   
O64      O      0.919380000000     0.028340000000     0.452150000000    -0.496676   
O65      O      0.015190000000     0.342230000000     0.012030000000    -0.367728   
O66      O      0.021170000000     0.353930000000     0.934040000000    -0.369986   
O67      O      0.835640000000     0.422980000000     0.028210000000    -0.392028   
O68      O      0.879540000000     0.511750000000     0.027880000000    -0.292441   
O69      O      0.879490000000     0.327360000000     0.957270000000    -0.362374   
O70      O      0.931290000000     0.344890000000     0.894990000000    -0.327324   
O71      O      0.018360000000     0.446090000000     0.120790000000    -0.380884   
O72      O      0.987120000000     0.508050000000     0.113660000000    -0.340989   
O73      O      0.964020000000     0.338870000000     0.095570000000    -0.336134   
O74      O      0.110410000000     0.424280000000     0.080110000000    -0.535409   
O75      O      0.787490000000     0.333130000000     0.984580000000    -0.519143   
O76      O      0.816410000000     0.411680000000     0.903620000000    -0.358869   
O77      O      0.960220000000     0.391600000000     0.978200000000    -0.489567   
O78      O      0.940850000000     0.438200000000     0.038660000000    -0.626724   
O79      O      0.147740000000     0.628810000000     0.028720000000    -0.349782   
O80      O      0.066300000000     0.623760000000     0.054280000000    -0.349191   
O81      O      0.005000000000     0.537700000000     0.826780000000    -0.375664   
O82      O      0.015450000000     0.462760000000     0.832390000000    -0.337221   
O83      O      0.971330000000     0.619160000000     0.935160000000    -0.367514   
O84      O      0.953330000000     0.598070000000     0.011500000000    -0.355614   
O85      O      0.171300000000     0.549700000000     0.918740000000    -0.338254   
O86      O      0.122970000000     0.460990000000     0.908910000000    -0.358801   
O87      O      0.186460000000     0.646660000000     0.941960000000    -0.513766   
O88      O      0.200500000000     0.558910000000     0.027880000000    -0.342144   
O89      O      0.032430000000     0.636200000000     0.855820000000    -0.325625   
O90      O      0.891200000000     0.534730000000     0.860520000000    -0.526183   
O91      O      0.044220000000     0.580720000000     0.968470000000    -0.640193   
O92      O      0.060920000000     0.530560000000     0.908870000000    -0.491924   
O93      O      0.063120000000     0.514750000000     0.042010000000    -0.50248    
O94      O      0.938740000000     0.454520000000     0.903210000000    -0.628676   
O95      O      0.080110000000     0.464000000000     0.982760000000    -0.629212   
O96      O      0.923190000000     0.504550000000     0.964130000000    -0.474933   
O97      O      0.952860000000     0.322340000000     0.546590000000    -0.353024   
O98      O      0.974410000000     0.323990000000     0.473100000000    -0.364406   
O99      O      0.817590000000     0.456630000000     0.512730000000    -0.403555   
O100     O      0.873030000000     0.545440000000     0.505660000000    -0.311278   
O101     O      0.837090000000     0.331080000000     0.473190000000    -0.36372    
O102     O      0.892000000000     0.321890000000     0.424400000000    -0.354198   
O103     O      0.959230000000     0.455580000000     0.622850000000    -0.378774   
O104     O      0.961060000000     0.536300000000     0.604240000000    -0.373175   
O105     O      0.896150000000     0.344320000000     0.609110000000    -0.325262   
O106     O      0.048510000000     0.413070000000     0.613090000000    -0.527192   
O107     O      0.754580000000     0.360910000000     0.468190000000    -0.523468   
O108     O      0.811240000000     0.433600000000     0.389830000000    -0.361865   
O109     O      0.920070000000     0.387670000000     0.490690000000    -0.494549   
O110     O      0.910690000000     0.454470000000     0.535550000000    -0.612779   
O111     O      0.135670000000     0.616830000000     0.524430000000    -0.387803   
O112     O      0.063010000000     0.635070000000     0.535350000000    -0.356176   
O113     O      0.979260000000     0.493280000000     0.330310000000    -0.374605   
O114     O      0.986860000000     0.417110000000     0.349820000000    -0.377644   
O115     O      0.002430000000     0.632540000000     0.405590000000    -0.35907    
O116     O      0.977880000000     0.631770000000     0.478100000000    -0.339809   
O117     O      0.134480000000     0.505020000000     0.434260000000    -0.331455   
O118     O      0.083850000000     0.415610000000     0.436040000000    -0.371345   
O119     O      0.198390000000     0.596370000000     0.477200000000    -0.522932   
O120     O      0.145190000000     0.502480000000     0.559220000000    -0.366644   
O121     O      0.067360000000     0.603800000000     0.347640000000    -0.324156   
O122     O      0.914240000000     0.552650000000     0.344040000000    -0.525367   
O123     O      0.040620000000     0.571320000000     0.464880000000    -0.636529   
O124     O      0.047780000000     0.502500000000     0.421300000000    -0.47408    
O125     O      0.031120000000     0.509870000000     0.549590000000    -0.490049   
O126     O      0.924140000000     0.445870000000     0.406590000000    -0.62566    
O127     O      0.040470000000     0.436420000000     0.505530000000    -0.626929   
O128     O      0.916780000000     0.518100000000     0.450360000000    -0.485439   
O129     O      0.340720000000     0.987080000000     0.887070000000    -0.363528   
O130     O      0.313680000000     0.962490000000     0.961280000000    -0.357623   
O131     O      0.491480000000     0.849860000000     0.936820000000    -0.392686   
O132     O      0.578490000000     0.913060000000     0.908790000000    -0.347637   
O133     O      0.340190000000     0.832630000000     0.001630000000    -0.371101   
O134     O      0.316640000000     0.889950000000     0.029360000000    -0.348481   
O135     O      0.505410000000     0.028990000000     0.820130000000    -0.345968   
O136     O      0.577450000000     0.006850000000     0.841860000000    -0.367694   
O137     O      0.385240000000     0.964720000000     0.816210000000    -0.323616   
O138     O      0.448990000000     0.094430000000     0.850720000000    -0.52962    
O139     O      0.365700000000     0.844500000000     0.889870000000    -0.53427    
O140     O      0.398060000000     0.785990000000     0.982300000000    -0.322096   
O141     O      0.391430000000     0.940340000000     0.940370000000    -0.501486   
O142     O      0.479230000000     0.947660000000     0.898750000000    -0.626458   
O143     O      0.654240000000     0.139180000000     0.953520000000    -0.351789   
O144     O      0.665320000000     0.085420000000     0.908820000000    -0.351845   
O145     O      0.477390000000     0.947250000000     0.117040000000    -0.325887   
O146     O      0.402450000000     0.965230000000     0.094270000000    -0.366949   
O147     O      0.642670000000     0.989030000000     0.049040000000    -0.364453   
O148     O      0.667920000000     0.007360000000     0.974300000000    -0.350654   
O149     O      0.510360000000     0.118530000000     0.037940000000    -0.360866   
O150     O      0.412010000000     0.064860000000     0.028290000000    -0.370278   
O151     O      0.622820000000     0.176450000000     0.017090000000    -0.513923   
O152     O      0.537950000000     0.164500000000     0.924390000000    -0.359065   
O153     O      0.598680000000     0.019880000000     0.117590000000    -0.314557   
O154     O      0.537110000000     0.885450000000     0.086380000000    -0.52361    
O155     O      0.589330000000     0.038270000000     0.995130000000    -0.636886   
O156     O      0.503180000000     0.029560000000     0.036580000000    -0.483799   
O157     O      0.543280000000     0.059240000000     0.908870000000    -0.488625   
O158     O      0.441310000000     0.918770000000     0.027260000000    -0.639993   
O159     O      0.451960000000     0.051060000000     0.951570000000    -0.621583   
O160     O      0.528520000000     0.926480000000     0.984790000000    -0.488522   
O161     O      0.486690000000     0.130490000000     0.411810000000    -0.372799   
O162     O      0.529030000000     0.145210000000     0.484420000000    -0.371837   
O163     O      0.282390000000     0.860890000000     0.470440000000    -0.381592   
O164     O      0.330730000000     0.823720000000     0.442960000000    -0.300568   
O165     O      0.359450000000     0.993750000000     0.559870000000    -0.380118   
O166     O      0.430840000000     0.075930000000     0.536510000000    -0.347217   
O167     O      0.420890000000     0.986800000000     0.325650000000    -0.364687   
O168     O      0.412670000000     0.903350000000     0.341560000000    -0.360608   
O169     O      0.352790000000     0.035550000000     0.376620000000    -0.358929   
O170     O      0.482930000000     0.096300000000     0.327850000000    -0.520057   
O171     O      0.280870000000     0.961760000000     0.476310000000    -0.526077   
O172     O      0.303610000000     0.876570000000     0.563720000000    -0.338359   
O173     O      0.421380000000     0.030270000000     0.471530000000    -0.495622   
O174     O      0.380250000000     0.945170000000     0.423650000000    -0.63163    
O175     O      0.579230000000     0.961140000000     0.382150000000    -0.348156   
O176     O      0.507390000000     0.877220000000     0.400570000000    -0.356464   
O177     O      0.541920000000     0.976560000000     0.614420000000    -0.375439   
O178     O      0.540230000000     0.055900000000     0.599170000000    -0.371464   
O179     O      0.454180000000     0.824570000000     0.532350000000    -0.365163   
O180     O      0.420140000000     0.811370000000     0.457680000000    -0.321781   
O181     O      0.646400000000     0.106810000000     0.454030000000    -0.39241    
O182     O      0.613480000000     0.130730000000     0.510850000000    -0.323449   
O183     O      0.659690000000     0.001240000000     0.484670000000    -0.535752   
O184     O      0.654740000000     0.063270000000     0.384530000000    -0.32172    
O185     O      0.574840000000     0.900670000000     0.573540000000    -0.360814   
O186     O      0.442260000000     0.866710000000     0.616280000000    -0.52627    
O187     O      0.520340000000     0.925150000000     0.473600000000    -0.632458   
O188     O      0.560840000000     0.008730000000     0.519810000000    -0.494379   
O189     O      0.495370000000     0.984470000000     0.394180000000    -0.488378   
O190     O      0.446040000000     0.971050000000     0.550160000000    -0.633865   
O191     O      0.533110000000     0.063700000000     0.440430000000    -0.639507   
O192     O      0.407250000000     0.890090000000     0.501870000000    -0.490212   
O193     O      0.499550000000     0.339210000000     0.047990000000    -0.332177   
O194     O      0.481890000000     0.321740000000     0.972460000000    -0.359335   
O195     O      0.356720000000     0.478540000000     0.018010000000    -0.390854   
O196     O      0.416130000000     0.565800000000     0.003390000000    -0.332623   
O197     O      0.335730000000     0.352830000000     0.939790000000    -0.39773    
O198     O      0.397380000000     0.326660000000     0.917890000000    -0.348056   
O199     O      0.523960000000     0.482720000000     0.118490000000    -0.375748   
O200     O      0.514990000000     0.557950000000     0.098240000000    -0.337127   
O201     O      0.418210000000     0.364970000000     0.100660000000    -0.346296   
O202     O      0.567650000000     0.411230000000     0.113920000000    -0.513705   
O203     O      0.288930000000     0.382000000000     0.992110000000    -0.513931   
O204     O      0.342140000000     0.469250000000     0.899180000000    -0.352172   
O205     O      0.438380000000     0.392790000000     0.990710000000    -0.504799   
O206     O      0.447280000000     0.470530000000     0.034540000000    -0.628911   
O207     O      0.674380000000     0.620020000000     0.004170000000    -0.355911   
O208     O      0.610580000000     0.644030000000     0.025820000000    -0.34796    
O209     O      0.521360000000     0.503970000000     0.827610000000    -0.381148   
O210     O      0.504200000000     0.417850000000     0.845420000000    -0.331198   
O211     O      0.534370000000     0.642780000000     0.898100000000    -0.357362   
O212     O      0.531220000000     0.648160000000     0.974300000000    -0.365827   
O213     O      0.643890000000     0.490720000000     0.917920000000    -0.3654     
O214     O      0.588750000000     0.402060000000     0.928650000000    -0.352989   
O215     O      0.720840000000     0.591120000000     0.946660000000    -0.526715   
O216     O      0.677050000000     0.504430000000     0.040980000000    -0.370595   
O217     O      0.580330000000     0.613270000000     0.834200000000    -0.330428   
O218     O      0.430600000000     0.547360000000     0.838100000000    -0.526567   
O219     O      0.572750000000     0.577350000000     0.953830000000    -0.640742   
O220     O      0.562990000000     0.499760000000     0.911260000000    -0.471309   
O221     O      0.568360000000     0.518870000000     0.038520000000    -0.490887   
O222     O      0.443410000000     0.453320000000     0.903910000000    -0.621672   
O223     O      0.561980000000     0.438750000000     0.995910000000    -0.632409   
O224     O      0.448860000000     0.533210000000     0.947660000000    -0.486908   
O225     O      0.484910000000     0.330950000000     0.509460000000    -0.37255    
O226     O      0.485990000000     0.343400000000     0.431210000000    -0.341882   
O227     O      0.312930000000     0.427830000000     0.528320000000    -0.391973   
O228     O      0.365230000000     0.516410000000     0.535250000000    -0.355914   
O229     O      0.339130000000     0.329630000000     0.445200000000    -0.371868   
O230     O      0.399640000000     0.341700000000     0.390360000000    -0.317699   
O231     O      0.471960000000     0.422240000000     0.620310000000    -0.374877   
O232     O      0.466400000000     0.499830000000     0.616290000000    -0.379347   
O233     O      0.420610000000     0.320350000000     0.585400000000    -0.324628   
O234     O      0.571370000000     0.407690000000     0.585130000000    -0.526331   
O235     O      0.260160000000     0.339430000000     0.481250000000    -0.518514   
O236     O      0.296370000000     0.429920000000     0.403110000000    -0.355226   
O237     O      0.426340000000     0.385370000000     0.475560000000    -0.493388   
O238     O      0.414400000000     0.435070000000     0.537090000000    -0.625922   
O239     O      0.629360000000     0.613680000000     0.535410000000    -0.380715   
O240     O      0.551480000000     0.613690000000     0.562570000000    -0.352544   
O241     O      0.480010000000     0.534010000000     0.327830000000    -0.370939   
O242     O      0.492270000000     0.460080000000     0.332480000000    -0.379686   
O243     O      0.463970000000     0.624720000000     0.437620000000    -0.368148   
O244     O      0.471320000000     0.616820000000     0.516060000000    -0.36927    
O245     O      0.638760000000     0.535120000000     0.416620000000    -0.367116   
O246     O      0.589110000000     0.447250000000     0.404990000000    -0.363141   
O247     O      0.684190000000     0.626110000000     0.460030000000    -0.523129   
O248     O      0.661760000000     0.520100000000     0.536070000000    -0.362733   
O249     O      0.532580000000     0.636600000000     0.362600000000    -0.325252   
O250     O      0.381850000000     0.549400000000     0.363150000000    -0.528197   
O251     O      0.529040000000     0.574070000000     0.472680000000    -0.637062   
O252     O      0.539440000000     0.523060000000     0.412800000000    -0.486864   
O253     O      0.536980000000     0.501020000000     0.545570000000    -0.496382   
O254     O      0.415620000000     0.456200000000     0.402560000000    -0.631304   
O255     O      0.548700000000     0.448200000000     0.483040000000    -0.624825   
O256     O      0.405070000000     0.509630000000     0.466020000000    -0.487477   
Zr1      Zr     0.116300000000     0.024210000000     0.957660000000     1.42595    
Zr2      Zr     0.998380000000     0.060930000000     0.892550000000     1.38887    
Zr3      Zr     0.006010000000     0.930520000000     0.050070000000     1.40522    
Zr4      Zr     0.884220000000     0.962620000000     0.982810000000     1.37183    
Zr5      Zr     0.034970000000     0.073400000000     0.021320000000     1.37949    
Zr6      Zr     0.965350000000     0.914370000000     0.920780000000     1.37687    
Zr7      Zr     0.916990000000     0.864410000000     0.475120000000     1.38093    
Zr8      Zr     0.909740000000     0.980180000000     0.388910000000     1.37918    
Zr9      Zr     0.025220000000     0.970610000000     0.559500000000     1.39133    
Zr10     Zr     0.019720000000     0.086090000000     0.473860000000     1.40188    
Zr11     Zr     0.058060000000     0.987020000000     0.431920000000     1.3652     
Zr12     Zr     0.876720000000     0.962840000000     0.515600000000     1.37301    
Zr13     Zr     0.020380000000     0.419530000000     0.045510000000     1.38759    
Zr14     Zr     0.881950000000     0.409910000000     0.968690000000     1.38815    
Zr15     Zr     0.120640000000     0.559270000000     0.977610000000     1.40124    
Zr16     Zr     0.982380000000     0.550230000000     0.901310000000     1.39354    
Zr17     Zr     0.017920000000     0.434710000000     0.913690000000     1.37862    
Zr18     Zr     0.984270000000     0.534310000000     0.032260000000     1.38925    
Zr19     Zr     0.971450000000     0.414290000000     0.560790000000     1.39168    
Zr20     Zr     0.858070000000     0.423520000000     0.464300000000     1.38606    
Zr21     Zr     0.098820000000     0.531020000000     0.493460000000     1.38819    
Zr22     Zr     0.986590000000     0.541330000000     0.395210000000     1.39033    
Zr23     Zr     0.985780000000     0.407120000000     0.433740000000     1.36266    
Zr24     Zr     0.971140000000     0.550570000000     0.520670000000     1.35608    
Zr25     Zr     0.443250000000     0.010320000000     0.883410000000     1.39251    
Zr26     Zr     0.428170000000     0.880120000000     0.957550000000     1.39018    
Zr27     Zr     0.552440000000     0.098870000000     0.977650000000     1.37425    
Zr28     Zr     0.540650000000     0.968450000000     0.053040000000     1.39887    
Zr29     Zr     0.402380000000     0.979250000000     0.010140000000     1.35287    
Zr30     Zr     0.580050000000     0.996580000000     0.926240000000     1.36053    
Zr31     Zr     0.445130000000     0.034730000000     0.395130000000     1.374      
Zr32     Zr     0.358830000000     0.941200000000     0.501590000000     1.40005    
Zr33     Zr     0.582510000000     0.013470000000     0.442260000000     1.39461    
Zr34     Zr     0.494510000000     0.919710000000     0.549470000000     1.37486    
Zr35     Zr     0.510500000000     0.059370000000     0.518000000000     1.37386    
Zr36     Zr     0.431880000000     0.895420000000     0.425050000000     1.3799     
Zr37     Zr     0.502890000000     0.425770000000     0.056120000000     1.39558    
Zr38     Zr     0.386420000000     0.440280000000     0.966050000000     1.38857    
Zr39     Zr     0.626300000000     0.531280000000     0.977470000000     1.40016    
Zr40     Zr     0.509980000000     0.547600000000     0.888210000000     1.38292    
Zr41     Zr     0.496730000000     0.405400000000     0.929090000000     1.36943    
Zr42     Zr     0.512240000000     0.564180000000     0.014530000000     1.3719     
Zr43     Zr     0.485480000000     0.405590000000     0.544170000000     1.3924     
Zr44     Zr     0.356130000000     0.414500000000     0.466510000000     1.38367    
Zr45     Zr     0.598150000000     0.543570000000     0.483130000000     1.38319    
Zr46     Zr     0.467750000000     0.551690000000     0.404280000000     1.38743    
Zr47     Zr     0.487600000000     0.427190000000     0.412860000000     1.37167    
Zr48     Zr     0.466380000000     0.531400000000     0.535220000000     1.36628    


