data_structure

_audit_creation_method RASPA-1.0
_audit_creation_date 2023-6-4
_audit_author_name 'Poobodin Mano'

_cell_length_a    32.0731
_cell_length_b    31.8873
_cell_length_c    32.7092
_cell_angle_alpha 82.7522
_cell_angle_beta  96.3324
_cell_angle_gamma 119.444
_cell_volume      28853.7

_symmetry_cell_setting          triclinic
_symmetry_space_group_name_Hall 'P 1'
_symmetry_space_group_name_H-M  'P 1'
_symmetry_Int_Tables_number     1

_symmetry_equiv_pos_as_xyz 'x,y,z'

loop_
_atom_site_label
_atom_site_type_symbol
_atom_site_fract_x
_atom_site_fract_y
_atom_site_fract_z
_atom_site_charge
C1       C      0.116820000000     0.154010000000     0.079760000000     0.401479   
C2       C      0.991820000000     0.948160000000     0.899360000000     0.414607   
C3       C      0.981840000000     0.127350000000     0.989290000000     0.405084   
C4       C      0.139550000000     0.974450000000     0.999520000000     0.407098   
C5       C      0.044180000000     0.864860000000     0.083380000000     0.40327    
C6       C      0.883490000000     0.006280000000     0.088260000000     0.405556   
C7       C      0.906370000000     0.836500000000     0.992530000000     0.405214   
C8       C      0.024730000000     0.039610000000     0.174180000000     0.401356   
C9       C      0.104410000000     0.986660000000     0.446060000000     0.405331   
C10      C      0.907890000000     0.071270000000     0.500520000000     0.406658   
C11      C      0.102970000000     0.125360000000     0.389900000000     0.404069   
C12      C      0.906040000000     0.925360000000     0.557630000000     0.403379   
C13      C      0.999370000000     0.987920000000     0.660410000000     0.41417    
C14      C      0.202600000000     0.212620000000     0.495900000000     0.402244   
C15      C      0.005790000000     0.151650000000     0.606820000000     0.393851   
C16      C      0.204790000000     0.064420000000     0.557410000000     0.40135    
C17      C      0.066650000000     0.376050000000     0.071810000000     0.404386   
C18      C      0.875720000000     0.484700000000     0.077580000000     0.40573    
C19      C      0.940440000000     0.338780000000     0.988580000000     0.405787   
C20      C      0.993980000000     0.501660000000     0.174720000000     0.406196   
C21      C      0.100790000000     0.657480000000     0.080210000000     0.398835   
C22      C      0.046290000000     0.490730000000     0.894500000000     0.404944   
C23      C      0.972050000000     0.618640000000     0.997420000000     0.401496   
C24      C      0.163100000000     0.515080000000     0.984790000000     0.405146   
C25      C      0.021650000000     0.409500000000     0.565620000000     0.398367   
C26      C      0.957700000000     0.642060000000     0.537560000000     0.407056   
C27      C      0.939780000000     0.439350000000     0.461840000000     0.406124   
C28      C      0.024830000000     0.593090000000     0.663550000000     0.403668   
C29      C      0.180020000000     0.704690000000     0.609180000000     0.402763   
C30      C      0.108240000000     0.563870000000     0.401010000000     0.40342    
C31      C      0.101430000000     0.741250000000     0.494320000000     0.403628   
C32      C      0.173320000000     0.522780000000     0.507420000000     0.405772   
C33      C      0.391490000000     0.090000000000     0.978980000000     0.4041     
C34      C      0.526570000000     0.927700000000     0.941270000000     0.406646   
C35      C      0.348480000000     0.929150000000     0.044070000000     0.400566   
C36      C      0.569310000000     0.089060000000     0.877030000000     0.40703    
C37      C      0.673350000000     0.153750000000     0.979980000000     0.407626   
C38      C      0.455740000000     0.997720000000     0.150060000000     0.407115   
C39      C      0.632790000000     0.993870000000     0.048120000000     0.405735   
C40      C      0.504500000000     0.143860000000     0.102620000000     0.410486   
C41      C      0.516150000000     0.183880000000     0.483490000000     0.406632   
C42      C      0.436150000000     0.895280000000     0.535030000000     0.402386   
C43      C      0.459630000000     0.105760000000     0.600220000000     0.406411   
C44      C      0.499310000000     0.980010000000     0.411590000000     0.407028   
C45      C      0.653020000000     0.020900000000     0.462490000000     0.406598   
C46      C      0.625330000000     0.146540000000     0.657150000000     0.405488   
C47      C      0.594580000000     0.934890000000     0.589670000000     0.402526   
C48      C      0.681480000000     0.227560000000     0.538910000000     0.403681   
C49      C      0.488410000000     0.366420000000     0.115280000000     0.408366   
C50      C      0.418970000000     0.584990000000     0.071640000000     0.406333   
C51      C      0.376160000000     0.362470000000     0.016130000000     0.40478    
C52      C      0.553860000000     0.596110000000     0.165960000000     0.406631   
C53      C      0.652420000000     0.668540000000     0.065900000000     0.40641    
C54      C      0.489960000000     0.441430000000     0.915570000000     0.406271   
C55      C      0.518350000000     0.657720000000     0.968550000000     0.407497   
C56      C      0.609980000000     0.446540000000     0.010530000000     0.404      
C57      C      0.580320000000     0.410160000000     0.589940000000     0.404459   
C58      C      0.424530000000     0.557820000000     0.603890000000     0.404695   
C59      C      0.451720000000     0.382030000000     0.521430000000     0.406752   
C60      C      0.560500000000     0.574000000000     0.696380000000     0.405641   
C61      C      0.661650000000     0.695940000000     0.608910000000     0.404544   
C62      C      0.540290000000     0.513450000000     0.411610000000     0.402792   
C63      C      0.520930000000     0.677690000000     0.518560000000     0.40445    
C64      C      0.679460000000     0.529130000000     0.505650000000     0.401335   
C65      C      0.527870000000     0.483430000000     0.824770000000    -0.0787326  
C66      C      0.521870000000     0.511490000000     0.784800000000    -0.0784015  
C67      C      0.570050000000     0.554190000000     0.771790000000     0.00951508 
C68      C      0.479080000000     0.442800000000     0.839130000000     0.0111866  
C69      C      0.560520000000     0.554670000000     0.307670000000    -0.0772846  
C70      C      0.543740000000     0.573890000000     0.267340000000    -0.08193    
C71      C      0.585490000000     0.604280000000     0.239220000000     0.0117642  
C72      C      0.519370000000     0.525250000000     0.336560000000     0.00664486 
C73      C      0.558490000000     0.787780000000     0.544740000000    -0.0779161  
C74      C      0.557620000000     0.822380000000     0.572950000000    -0.0799922  
C75      C      0.607390000000     0.866630000000     0.577740000000     0.0116602  
C76      C      0.508900000000     0.743680000000     0.538770000000     0.00917646 
C77      C      0.547620000000     0.287030000000     0.513330000000    -0.0789405  
C78      C      0.543780000000     0.311240000000     0.549340000000    -0.0780762  
C79      C      0.593420000000     0.346450000000     0.567460000000     0.011369   
C80      C      0.498000000000     0.246980000000     0.499340000000     0.0132671  
C81      C      0.609490000000     0.153180000000     0.773270000000    -0.0796235  
C82      C      0.593790000000     0.177990000000     0.736180000000    -0.0761646  
C83      C      0.633350000000     0.205070000000     0.705210000000     0.00654368 
C84      C      0.572140000000     0.128880000000     0.806110000000     0.00734477 
C85      C      0.447250000000     0.976360000000     0.263960000000    -0.0805656  
C86      C      0.470100000000     0.959300000000     0.301230000000    -0.0807832  
C87      C      0.459160000000     0.970940000000     0.341430000000     0.00792267 
C88      C      0.459780000000     0.967430000000     0.223240000000     0.00770545 
C89      C      0.502210000000     0.766000000000     0.939000000000    -0.0804499  
C90      C      0.520780000000     0.817250000000     0.951400000000    -0.0783073  
C91      C      0.500170000000     0.844730000000     0.921650000000     0.0082563  
C92      C      0.525200000000     0.739220000000     0.966520000000     0.0074698  
C93      C      0.469500000000     0.242590000000     0.142510000000    -0.077993   
C94      C      0.439770000000     0.191040000000     0.129130000000    -0.0763751  
C95      C      0.459210000000     0.158270000000     0.150970000000     0.00846068 
C96      C      0.454580000000     0.277340000000     0.117320000000     0.00687095 
C97      C      0.836910000000     0.346890000000     0.491130000000    -0.0784994  
C98      C      0.782670000000     0.325030000000     0.495770000000    -0.0803504  
C99      C      0.767310000000     0.292000000000     0.535910000000     0.00818535 
C100     C      0.853310000000     0.379040000000     0.450680000000     0.00841648 
C101     C      0.282610000000     0.788590000000     0.584730000000    -0.075671   
C102     C      0.336360000000     0.807520000000     0.580610000000    -0.0811461  
C103     C      0.350560000000     0.831560000000     0.537040000000     0.010378   
C104     C      0.265490000000     0.761300000000     0.626890000000     0.00711264 
C105     C      0.844760000000     0.603270000000     0.531130000000    -0.0781965  
C106     C      0.797940000000     0.585620000000     0.504010000000    -0.0801108  
C107     C      0.759840000000     0.536630000000     0.522300000000     0.0135915  
C108     C      0.885600000000     0.649370000000     0.511500000000     0.0112127  
C109     C      0.323820000000     0.548910000000     0.562800000000    -0.0787151  
C110     C      0.269630000000     0.519900000000     0.552160000000    -0.0798341  
C111     C      0.256810000000     0.536330000000     0.508770000000     0.010286   
C112     C      0.337810000000     0.532480000000     0.605720000000     0.00960458 
C113     C      0.041450000000     0.565080000000     0.761680000000    -0.0851552  
C114     C      0.027470000000     0.525440000000     0.797500000000    -0.0764008  
C115     C      0.071880000000     0.532280000000     0.824930000000     0.00899357 
C116     C      0.997610000000     0.560660000000     0.734650000000     0.0182024  
C117     C      0.037340000000     0.514630000000     0.270870000000    -0.0764474  
C118     C      0.064140000000     0.546730000000     0.306190000000    -0.0784896  
C119     C      0.092840000000     0.526910000000     0.335040000000     0.00397572 
C120     C      0.006630000000     0.532580000000     0.242630000000    -0.0064926  
C121     C      0.831720000000     0.254370000000     0.974400000000    -0.0752653  
C122     C      0.792440000000     0.243490000000     0.003450000000    -0.0749399  
C123     C      0.745510000000     0.235600000000     0.979760000000     0.00524338 
C124     C      0.875640000000     0.254290000000     0.998510000000     0.0105441  
C125     C      0.201950000000     0.769800000000     0.072840000000    -0.0798879  
C126     C      0.228800000000     0.820540000000     0.050290000000    -0.0788198  
C127     C      0.283160000000     0.845130000000     0.060680000000     0.00413417 
C128     C      0.149510000000     0.743790000000     0.056350000000     0.0100248  
C129     C      0.709910000000     0.434330000000     0.039130000000    -0.0794049  
C130     C      0.764860000000     0.464490000000     0.042510000000    -0.0793232  
C131     C      0.786520000000     0.445790000000     0.079710000000     0.00962772 
C132     C      0.688500000000     0.451480000000     0.000770000000     0.0102854  
C133     C      0.323100000000     0.585600000000     0.030390000000    -0.0799626  
C134     C      0.269280000000     0.551320000000     0.023380000000    -0.0772047  
C135     C      0.251410000000     0.558530000000     0.978980000000     0.00927834 
C136     C      0.340050000000     0.580410000000     0.075510000000     0.0114568  
C137     C      0.768200000000     0.787060000000     0.590640000000    -0.0718436  
C138     C      0.820980000000     0.798880000000     0.591240000000    -0.0825394  
C139     C      0.848770000000     0.836920000000     0.556540000000     0.00814537 
C140     C      0.744700000000     0.756210000000     0.630000000000     0.0068285  
C141     C      0.320410000000     0.257910000000     0.487700000000    -0.0756754  
C142     C      0.338930000000     0.295650000000     0.519630000000    -0.072399   
C143     C      0.385160000000     0.301240000000     0.543080000000     0.00750822 
C144     C      0.278970000000     0.258060000000     0.459480000000     0.00815678 
C145     C      0.764060000000     0.060240000000     0.468040000000    -0.0763051  
C146     C      0.813440000000     0.103290000000     0.457230000000    -0.0787877  
C147     C      0.850890000000     0.087720000000     0.452990000000     0.00665315 
C148     C      0.728650000000     0.044730000000     0.430110000000     0.0100714  
C149     C      0.330200000000     0.080850000000     0.561750000000    -0.077738   
C150     C      0.347870000000     0.103380000000     0.603530000000    -0.073598   
C151     C      0.382780000000     0.088440000000     0.628330000000     0.00623849 
C152     C      0.287740000000     0.087050000000     0.541030000000     0.00625685 
C153     C      0.118380000000     0.887760000000     0.438750000000    -0.0768241  
C154     C      0.099890000000     0.837470000000     0.423890000000    -0.0787554  
C155     C      0.129490000000     0.813390000000     0.443440000000     0.0047988  
C156     C      0.092950000000     0.914000000000     0.414600000000     0.00631734 
C157     C      0.018350000000     0.306090000000     0.631840000000    -0.0928679  
C158     C      0.993520000000     0.255130000000     0.616420000000    -0.0638741  
C159     C      0.018250000000     0.226050000000     0.636160000000    -0.00516571 
C160     C      0.993100000000     0.335780000000     0.615200000000     0.0156018  
C161     C      0.958590000000     0.936310000000     0.785920000000    -0.0798675  
C162     C      0.938230000000     0.960730000000     0.752160000000    -0.0767769  
C163     C      0.933480000000     0.943550000000     0.709370000000     0.00736062 
C164     C      0.959800000000     0.952830000000     0.828160000000     0.00759269 
C165     C      0.118260000000     0.082900000000     0.307820000000    -0.0771414  
C166     C      0.086570000000     0.089810000000     0.271740000000    -0.0781083  
C167     C      0.058310000000     0.045200000000     0.247080000000     0.00444175 
C168     C      0.147490000000     0.129070000000     0.330680000000     0.00690689 
C169     C      0.808270000000     0.750090000000     0.024710000000    -0.0824327  
C170     C      0.755470000000     0.735980000000     0.027450000000    -0.0729114  
C171     C      0.740560000000     0.721890000000     0.072160000000     0.00664184 
C172     C      0.824360000000     0.768740000000     0.980480000000     0.0120864  
C173     C      0.270190000000     0.275510000000     0.051410000000    -0.0786251  
C174     C      0.215600000000     0.252740000000     0.053010000000    -0.0791197  
C175     C      0.198440000000     0.222230000000     0.093870000000     0.00927937 
C176     C      0.287910000000     0.306170000000     0.010700000000     0.00847245 
C177     C      0.761290000000     0.985900000000     0.101060000000    -0.0783175  
C178     C      0.710340000000     0.942510000000     0.101150000000    -0.0797747  
C179     C      0.671700000000     0.957870000000     0.098540000000     0.00753255 
C180     C      0.798560000000     0.968610000000     0.105430000000     0.00614416 
C181     C      0.255210000000     0.037260000000     0.995430000000    -0.075946   
C182     C      0.298620000000     0.066710000000     0.024190000000    -0.0773206  
C183     C      0.335720000000     0.114090000000     0.002440000000     0.013565   
C184     C      0.222040000000     0.988160000000     0.017470000000     0.0122109  
C185     C      0.005340000000     0.756340000000     0.057610000000    -0.0926062  
C186     C      0.007080000000     0.723400000000     0.028220000000    -0.0790968  
C187     C      0.956820000000     0.682470000000     0.017260000000     0.0136763  
C188     C      0.055830000000     0.796810000000     0.068620000000     0.0142093  
C189     C      0.027410000000     0.270840000000     0.043000000000    -0.0773858  
C190     C      0.025790000000     0.236580000000     0.013300000000    -0.084076   
C191     C      0.974100000000     0.197530000000     0.004000000000     0.0182794  
C192     C      0.078870000000     0.310290000000     0.052470000000     0.0104937  
H1       H      0.076910000000     0.019530000000     0.952850000000     0.199534   
H2       H      0.924680000000     0.024340000000     0.008710000000     0.19301    
H3       H      0.959560000000     0.877160000000     0.069900000000     0.195328   
H4       H      0.086810000000     0.058300000000     0.112480000000     0.194427   
H5       H      0.902920000000     0.999750000000     0.920220000000     0.128131   
H6       H      0.841850000000     0.944050000000     0.979110000000     0.183961   
H7       H      0.878390000000     0.882310000000     0.118690000000     0.141476   
H8       H      0.955700000000     0.861960000000     0.156680000000     0.193264   
H9       H      0.123570000000     0.994160000000     0.148660000000     0.125468   
H10      H      0.192240000000     0.078100000000     0.095480000000     0.185382   
H11      H      0.152410000000     0.141680000000     0.975590000000     0.137906   
H12      H      0.062960000000     0.083030000000     0.888630000000     0.196209   
H13      H      0.961540000000     0.905040000000     0.184880000000     0.200692   
H14      H      0.217300000000     0.109950000000     0.051810000000     0.195834   
H15      H      0.071790000000     0.127210000000     0.916950000000     0.1985     
H16      H      0.812790000000     0.887800000000     0.001630000000     0.200479   
H17      H      0.941910000000     0.003210000000     0.492080000000     0.197048   
H18      H      0.108880000000     0.168780000000     0.466120000000     0.197524   
H19      H      0.062220000000     0.099060000000     0.625780000000     0.195483   
H20      H      0.108500000000     0.998410000000     0.532620000000     0.193687   
H21      H      0.020150000000     0.186840000000     0.451710000000     0.129865   
H22      H      0.091750000000     0.244510000000     0.503000000000     0.186693   
H23      H      0.182730000000     0.196530000000     0.608010000000     0.140404   
H24      H      0.129650000000     0.091150000000     0.678490000000     0.193451   
H25      H      0.095510000000     0.950820000000     0.619670000000     0.126653   
H26      H      0.030110000000     0.898710000000     0.559490000000     0.186107   
H27      H      0.972260000000     0.957690000000     0.422810000000     0.140019   
H28      H      0.926850000000     0.032480000000     0.404470000000     0.196502   
H29      H      0.179020000000     0.114190000000     0.651890000000     0.19731    
H30      H      0.997350000000     0.871050000000     0.517970000000     0.206067   
H31      H      0.974600000000     0.041850000000     0.380600000000     0.19927    
H32      H      0.120060000000     0.265650000000     0.548030000000     0.199755   
H33      H      0.943720000000     0.451220000000     0.109680000000     0.198431   
H34      H      0.957680000000     0.439940000000     0.948370000000     0.199657   
H35      H      0.059010000000     0.615210000000     0.009700000000     0.195413   
H36      H      0.114730000000     0.480550000000     0.061930000000     0.196971   
H37      H      0.855260000000     0.436710000000     0.970500000000     0.13794    
H38      H      0.907020000000     0.515540000000     0.916880000000     0.19594    
H39      H      0.078690000000     0.630620000000     0.924250000000     0.125372   
H40      H      0.168010000000     0.651980000000     0.974370000000     0.186389   
H41      H      0.168570000000     0.597120000000     0.115910000000     0.144166   
H42      H      0.132200000000     0.480790000000     0.151060000000     0.195672   
H43      H      0.963520000000     0.362380000000     0.142730000000     0.128641   
H44      H      0.875770000000     0.342410000000     0.092480000000     0.186856   
H45      H      0.209140000000     0.656920000000     0.012510000000     0.199337   
H46      H      0.106990000000     0.502480000000     0.178480000000     0.198779   
H47      H      0.831260000000     0.347990000000     0.065040000000     0.196888   
H48      H      0.933160000000     0.497110000000     0.887140000000     0.195056   
H49      H      0.974080000000     0.561360000000     0.587250000000     0.192517   
H50      H      0.014000000000     0.548820000000     0.432670000000     0.196109   
H51      H      0.153170000000     0.689490000000     0.525110000000     0.191704   
H52      H      0.105120000000     0.502460000000     0.572950000000     0.194598   
H53      H      0.946220000000     0.595210000000     0.429900000000     0.139441   
H54      H      0.030250000000     0.661630000000     0.395980000000     0.193497   
H55      H      0.190360000000     0.708340000000     0.446670000000     0.125251   
H56      H      0.242720000000     0.683330000000     0.514360000000     0.183799   
H57      H      0.175560000000     0.584130000000     0.643550000000     0.142      
H58      H      0.097760000000     0.488010000000     0.657550000000     0.191574   
H59      H      0.930900000000     0.445620000000     0.603190000000     0.133429   
H60      H      0.886580000000     0.493430000000     0.560760000000     0.183974   
H61      H      0.264540000000     0.657700000000     0.552140000000     0.199018   
H62      H      0.064140000000     0.495050000000     0.688860000000     0.199633   
H63      H      0.860180000000     0.494820000000     0.513910000000     0.198126   
H64      H      0.042140000000     0.624030000000     0.374420000000     0.190719   
H65      H      0.493650000000     0.000200000000     0.919340000000     0.196119   
H66      H      0.439710000000     0.949080000000     0.077820000000     0.196679   
H67      H      0.625680000000     0.080880000000     0.051840000000     0.194437   
H68      H      0.489670000000     0.135000000000     0.004490000000     0.196808   
H69      H      0.431570000000     0.863870000000     0.047230000000     0.125713   
H70      H      0.506130000000     0.896860000000     0.102200000000     0.188879   
H71      H      0.596910000000     0.070730000000     0.146210000000     0.135367   
H72      H      0.652740000000     0.156450000000     0.103110000000     0.186357   
H73      H      0.592600000000     0.214780000000     0.975150000000     0.13615    
H74      H      0.512630000000     0.184100000000     0.924500000000     0.189475   
H75      H      0.396790000000     0.013470000000     0.896200000000     0.141202   
H76      H      0.403790000000     0.917550000000     0.907000000000     0.193729   
H77      H      0.657660000000     0.209920000000     0.084280000000     0.199066   
H78      H      0.493990000000     0.161390000000     0.878450000000     0.202222   
H79      H      0.360200000000     0.915100000000     0.932700000000     0.197443   
H80      H      0.520640000000     0.918610000000     0.148690000000     0.199844   
H81      H      0.459440000000     0.982820000000     0.484880000000     0.194905   
H82      H      0.527780000000     0.066770000000     0.630160000000     0.197795   
H83      H      0.644600000000     0.029890000000     0.548990000000     0.191261   
H84      H      0.601920000000     0.169980000000     0.479930000000     0.194503   
H85      H      0.450450000000     0.941160000000     0.637040000000     0.140286   
H86      H      0.540810000000     0.966510000000     0.678970000000     0.198743   
H87      H      0.697330000000     0.073670000000     0.624430000000     0.126034   
H88      H      0.735450000000     0.114820000000     0.553650000000     0.182232   
H89      H      0.656590000000     0.141410000000     0.418650000000     0.140865   
H90      H      0.580990000000     0.161650000000     0.398180000000     0.191048   
H91      H      0.419770000000     0.053450000000     0.454090000000     0.129554   
H92      H      0.374950000000     0.986510000000     0.515040000000     0.184838   
H93      H      0.757410000000     0.157200000000     0.514340000000     0.199248   
H94      H      0.546410000000     0.113770000000     0.371190000000     0.201256   
H95      H      0.359360000000     0.970460000000     0.564070000000     0.198996   
H96      H      0.557800000000     0.020250000000     0.696030000000     0.195954   
H97      H      0.461040000000     0.529790000000     0.118060000000     0.193718   
H98      H      0.429030000000     0.451510000000     0.971040000000     0.199818   
H99      H      0.590810000000     0.622460000000     0.993420000000     0.192405   
H100     H      0.576800000000     0.459950000000     0.083670000000     0.191683   
H101     H      0.322130000000     0.462980000000     0.015710000000     0.144559   
H102     H      0.412520000000     0.525480000000     0.915720000000     0.196694   
H103     H      0.588220000000     0.572940000000     0.910220000000     0.137575   
H104     H      0.666140000000     0.621330000000     0.965770000000     0.188208   
H105     H      0.668420000000     0.556150000000     0.112400000000     0.134953   
H106     H      0.608170000000     0.479120000000     0.160970000000     0.185346   
H107     H      0.433890000000     0.432710000000     0.166110000000     0.137043   
H108     H      0.365220000000     0.457500000000     0.124800000000     0.189656   
H109     H      0.690580000000     0.585140000000     0.976890000000     0.199937   
H110     H      0.583290000000     0.484840000000     0.200820000000     0.200661   
H111     H      0.340510000000     0.405170000000     0.102920000000     0.196693   
H112     H      0.451360000000     0.546660000000     0.878330000000     0.201424   
H113     H      0.486790000000     0.514050000000     0.637510000000     0.191164   
H114     H      0.476440000000     0.487580000000     0.474520000000     0.199259   
H115     H      0.607040000000     0.664550000000     0.527620000000     0.19491    
H116     H      0.636290000000     0.511250000000     0.578150000000     0.195992   
H117     H      0.364460000000     0.434280000000     0.509980000000     0.136833   
H118     H      0.438000000000     0.560500000000     0.441460000000     0.199282   
H119     H      0.615590000000     0.645590000000     0.426240000000     0.141703   
H120     H      0.698400000000     0.699900000000     0.497770000000     0.192174   
H121     H      0.723010000000     0.604830000000     0.610060000000     0.126582   
H122     H      0.667610000000     0.527270000000     0.661810000000     0.182029   
H123     H      0.481800000000     0.416210000000     0.657840000000     0.132275   
H124     H      0.402210000000     0.425900000000     0.633420000000     0.185224   
H125     H      0.701010000000     0.658780000000     0.472540000000     0.196099   
H126     H      0.632760000000     0.495850000000     0.701190000000     0.200191   
H127     H      0.363520000000     0.401230000000     0.593540000000     0.192456   
H128     H      0.475450000000     0.599970000000     0.406290000000     0.201506   
H129     H      0.463330000000     0.414740000000     0.816640000000     0.0239293  
H130     H      0.453700000000     0.457020000000     0.839880000000     0.0308724  
H131     H      0.587610000000     0.577570000000     0.797770000000     0.0272186  
H132     H      0.594520000000     0.540990000000     0.764640000000     0.0343599  
H133     H      0.497380000000     0.525590000000     0.789710000000     0.0440737  
H134     H      0.505600000000     0.486770000000     0.759610000000     0.0509521  
H135     H      0.556710000000     0.611260000000     0.742240000000     0.0990051  
H136     H      0.550690000000     0.467510000000     0.819580000000     0.0449961  
H137     H      0.546220000000     0.508920000000     0.849190000000     0.0535686  
H138     H      0.482460000000     0.386750000000     0.881890000000     0.0984605  
H139     H      0.488620000000     0.496580000000     0.319620000000     0.0269064  
H140     H      0.506720000000     0.549020000000     0.346420000000     0.0350093  
H141     H      0.613030000000     0.636260000000     0.255090000000     0.023728   
H142     H      0.603020000000     0.583110000000     0.233310000000     0.0328278  
H143     H      0.528400000000     0.596530000000     0.274560000000     0.0445922  
H144     H      0.515360000000     0.542910000000     0.250850000000     0.0545147  
H145     H      0.570920000000     0.654950000000     0.198490000000     0.0984147  
H146     H      0.574970000000     0.531360000000     0.300140000000     0.043383   
H147     H      0.589650000000     0.585420000000     0.323900000000     0.0458548  
H148     H      0.539780000000     0.473240000000     0.366240000000     0.0977909  
H149     H      0.482430000000     0.755940000000     0.527060000000     0.0251616  
H150     H      0.496770000000     0.722170000000     0.568790000000     0.0388571  
H151     H      0.633270000000     0.854580000000     0.592010000000     0.0234159  
H152     H      0.620320000000     0.885350000000     0.546960000000     0.0353758  
H153     H      0.546090000000     0.803260000000     0.603880000000     0.0466447  
H154     H      0.531480000000     0.834440000000     0.559490000000     0.0570007  
H155     H      0.618500000000     0.898650000000     0.635070000000     0.0977796  
H156     H      0.570700000000     0.807330000000     0.514050000000     0.0466001  
H157     H      0.584280000000     0.775300000000     0.558340000000     0.0505836  
H158     H      0.504130000000     0.723040000000     0.477420000000     0.09748    
H159     H      0.476540000000     0.263820000000     0.483830000000     0.021398   
H160     H      0.478260000000     0.223350000000     0.526430000000     0.0342684  
H161     H      0.611960000000     0.325990000000     0.581550000000     0.0253381  
H162     H      0.615930000000     0.372660000000     0.542730000000     0.0357181  
H163     H      0.523880000000     0.283350000000     0.574290000000     0.0475405  
H164     H      0.523370000000     0.330670000000     0.538150000000     0.0591691  
H165     H      0.590790000000     0.359760000000     0.630140000000     0.096677   
H166     H      0.563360000000     0.314430000000     0.486920000000     0.04698    
H167     H      0.572220000000     0.272050000000     0.523310000000     0.0592924  
H168     H      0.488160000000     0.218490000000     0.440320000000     0.0968282  
H169     H      0.537320000000     0.102090000000     0.792050000000     0.0310084  
H170     H      0.567160000000     0.156920000000     0.818580000000     0.0338858  
H171     H      0.620920000000     0.222810000000     0.679040000000     0.0383169  
H172     H      0.665440000000     0.234260000000     0.720450000000     0.0258601  
H173     H      0.585230000000     0.204340000000     0.747190000000     0.0387617  
H174     H      0.560880000000     0.150500000000     0.720280000000     0.0451037  
H175     H      0.670060000000     0.163210000000     0.710140000000     0.0977439  
H176     H      0.615300000000     0.124900000000     0.762360000000     0.0455766  
H177     H      0.643870000000     0.180290000000     0.787730000000     0.0456229  
H178     H      0.615150000000     0.096040000000     0.833930000000     0.0991404  
H179     H      0.445520000000     0.928050000000     0.221570000000     0.0262192  
H180     H      0.499510000000     0.986120000000     0.221980000000     0.0361686  
H181     H      0.472090000000     0.010480000000     0.339760000000     0.0363303  
H182     H      0.419800000000     0.951530000000     0.344950000000     0.0286873  
H183     H      0.509640000000     0.977740000000     0.298830000000     0.046251   
H184     H      0.455860000000     0.919630000000     0.301660000000     0.0420547  
H185     H      0.482230000000     0.923110000000     0.376840000000     0.0984497  
H186     H      0.407610000000     0.956790000000     0.265930000000     0.0423612  
H187     H      0.460250000000     0.015740000000     0.264300000000     0.0451306  
H188     H      0.407610000000     0.987180000000     0.192530000000     0.0977541  
H189     H      0.509830000000     0.729100000000     0.997400000000     0.0393408  
H190     H      0.564620000000     0.762980000000     0.970420000000     0.0299533  
H191     H      0.496170000000     0.834450000000     0.889620000000     0.0243922  
H192     H      0.463810000000     0.835020000000     0.930490000000     0.0387791  
H193     H      0.560590000000     0.836860000000     0.950870000000     0.0460777  
H194     H      0.511090000000     0.815820000000     0.983350000000     0.0484242  
H195     H      0.565320000000     0.909850000000     0.907110000000     0.0986604  
H196     H      0.462570000000     0.745020000000     0.940750000000     0.0451813  
H197     H      0.510930000000     0.768680000000     0.906440000000     0.0425198  
H198     H      0.510760000000     0.695960000000     0.915350000000     0.0973285  
H199     H      0.414950000000     0.261630000000     0.116260000000     0.028028   
H200     H      0.465940000000     0.282920000000     0.085250000000     0.0406441  
H201     H      0.466630000000     0.163760000000     0.184450000000     0.0244648  
H202     H      0.431450000000     0.119810000000     0.148790000000     0.0396161  
H203     H      0.439850000000     0.191110000000     0.095100000000     0.0488524  
H204     H      0.402020000000     0.176220000000     0.137260000000     0.0378571  
H205     H      0.535470000000     0.198370000000     0.142540000000     0.096042   
H206     H      0.464510000000     0.241690000000     0.175810000000     0.041503   
H207     H      0.508250000000     0.256500000000     0.138670000000     0.0473885  
H208     H      0.477360000000     0.321470000000     0.168780000000     0.0960146  
H209     H      0.845070000000     0.409280000000     0.449220000000     0.036515   
H210     H      0.833220000000     0.357370000000     0.424150000000     0.0261103  
H211     H      0.775080000000     0.261680000000     0.535510000000     0.0367439  
H212     H      0.789010000000     0.312790000000     0.562470000000     0.0255547  
H213     H      0.762330000000     0.303590000000     0.469160000000     0.0496101  
H214     H      0.773910000000     0.354680000000     0.496080000000     0.0427969  
H215     H      0.707500000000     0.298400000000     0.552420000000     0.09532    
H216     H      0.857020000000     0.368860000000     0.517520000000     0.0491503  
H217     H      0.845820000000     0.317190000000     0.491860000000     0.0452056  
H218     H      0.914780000000     0.374420000000     0.435960000000     0.0995588  
H219     H      0.285110000000     0.786030000000     0.651670000000     0.0249551  
H220     H      0.273220000000     0.730580000000     0.632570000000     0.0351733  
H221     H      0.328890000000     0.804800000000     0.514100000000     0.0196087  
H222     H      0.342070000000     0.861730000000     0.530310000000     0.0322638  
H223     H      0.344330000000     0.776980000000     0.586510000000     0.0432613  
H224     H      0.357650000000     0.834250000000     0.603640000000     0.0491393  
H225     H      0.410460000000     0.824240000000     0.522270000000     0.0956104  
H226     H      0.275170000000     0.819520000000     0.580210000000     0.0421014  
H227     H      0.261790000000     0.763930000000     0.560110000000     0.0431915  
H228     H      0.203610000000     0.766280000000     0.639910000000     0.0982318  
H229     H      0.876280000000     0.678960000000     0.508590000000     0.0244373  
H230     H      0.890660000000     0.643770000000     0.479890000000     0.032773   
H231     H      0.772600000000     0.509780000000     0.522990000000     0.0181086  
H232     H      0.754540000000     0.539060000000     0.554820000000     0.0288444  
H233     H      0.804310000000     0.581670000000     0.472320000000     0.0454901  
H234     H      0.785050000000     0.612470000000     0.502120000000     0.0551116  
H235     H      0.705720000000     0.492280000000     0.478170000000     0.0967963  
H236     H      0.838920000000     0.610480000000     0.561820000000     0.0472142  
H237     H      0.855180000000     0.574440000000     0.535950000000     0.0507996  
H238     H      0.941280000000     0.692220000000     0.555670000000     0.0991689  
H239     H      0.329550000000     0.494160000000     0.606830000000     0.0332479  
H240     H      0.316440000000     0.534680000000     0.629110000000     0.0243977  
H241     H      0.269060000000     0.575780000000     0.506280000000     0.0351113  
H242     H      0.275990000000     0.530230000000     0.485800000000     0.025176   
H243     H      0.249770000000     0.525140000000     0.575080000000     0.0519407  
H244     H      0.258530000000     0.480790000000     0.553530000000     0.0437537  
H245     H      0.192480000000     0.477810000000     0.483270000000     0.0979343  
H246     H      0.343750000000     0.544500000000     0.539400000000     0.0528081  
H247     H      0.334510000000     0.587900000000     0.561900000000     0.0449203  
H248     H      0.398080000000     0.594880000000     0.630830000000     0.0974915  
H249     H      0.973450000000     0.565170000000     0.753450000000     0.0249037  
H250     H      0.976920000000     0.524160000000     0.722960000000     0.0366467  
H251     H      0.099410000000     0.534360000000     0.805630000000     0.0229496  
H252     H      0.088010000000     0.567000000000     0.839570000000     0.0376133  
H253     H      0.010310000000     0.489450000000     0.784900000000     0.0413644  
H254     H      0.001420000000     0.526800000000     0.816370000000     0.0460928  
H255     H      0.065130000000     0.463440000000     0.849670000000     0.0972507  
H256     H      0.060290000000     0.601200000000     0.774170000000     0.048076   
H257     H      0.066390000000     0.562470000000     0.742320000000     0.0473741  
H258     H      0.017170000000     0.632030000000     0.705730000000     0.0982118  
H259     H      0.029800000000     0.568750000000     0.226890000000     0.034804   
H260     H      0.981620000000     0.535790000000     0.261390000000     0.0344986  
H261     H      0.068210000000     0.491720000000     0.351330000000     0.0385836  
H262     H      0.116260000000     0.520780000000     0.316680000000     0.0272548  
H263     H      0.038140000000     0.549020000000     0.324440000000     0.0377583  
H264     H      0.088990000000     0.583740000000     0.292940000000     0.0417293  
H265     H      0.151530000000     0.594350000000     0.351600000000     0.0981538  
H266     H      0.063570000000     0.513520000000     0.252040000000     0.0420431  
H267     H      0.013730000000     0.477290000000     0.284260000000     0.0432945  
H268     H      0.957810000000     0.461860000000     0.225780000000     0.096847   
H269     H      0.873150000000     0.218350000000     0.997800000000     0.0220707  
H270     H      0.876860000000     0.259780000000     0.031680000000     0.0331501  
H271     H      0.725050000000     0.243780000000     0.999800000000     0.0347812  
H272     H      0.752820000000     0.261210000000     0.951670000000     0.0293165  
H273     H      0.805380000000     0.274700000000     0.022340000000     0.0428011  
H274     H      0.785510000000     0.211090000000     0.025010000000     0.044521   
H275     H      0.734120000000     0.174550000000     0.948690000000     0.0992547  
H276     H      0.817930000000     0.227080000000     0.951350000000     0.0428038  
H277     H      0.841920000000     0.290100000000     0.957070000000     0.0547983  
H278     H      0.938100000000     0.281250000000     0.962800000000     0.0969816  
H279     H      0.147270000000     0.729910000000     0.026170000000     0.0278229  
H280     H      0.135500000000     0.769840000000     0.050110000000     0.0208268  
H281     H      0.290800000000     0.833940000000     0.092970000000     0.0269245  
H282     H      0.299750000000     0.833210000000     0.039840000000     0.0389991  
H283     H      0.213720000000     0.842730000000     0.059160000000     0.0436461  
H284     H      0.222410000000     0.818300000000     0.016300000000     0.0424854  
H285     H      0.286460000000     0.912070000000     0.071300000000     0.0960295  
H286     H      0.219190000000     0.747920000000     0.068370000000     0.0473237  
H287     H      0.203580000000     0.773490000000     0.106430000000     0.0463404  
H288     H      0.102620000000     0.714060000000     0.106690000000     0.0949623  
H289     H      0.698830000000     0.443280000000     0.972680000000     0.0233416  
H290     H      0.703420000000     0.491330000000     0.999110000000     0.0342147  
H291     H      0.765160000000     0.437410000000     0.107080000000     0.024222   
H292     H      0.785080000000     0.411670000000     0.073270000000     0.0305381  
H293     H      0.774820000000     0.502660000000     0.045830000000     0.0482126  
H294     H      0.780100000000     0.463510000000     0.013930000000     0.0445711  
H295     H      0.839710000000     0.511170000000     0.105850000000     0.0995869  
H296     H      0.699180000000     0.395640000000     0.037560000000     0.043074   
H297     H      0.695150000000     0.437540000000     0.067100000000     0.0480961  
H298     H      0.617980000000     0.389700000000     0.995340000000     0.0988337  
H299     H      0.325460000000     0.541640000000     0.086890000000     0.0303168  
H300     H      0.326370000000     0.596570000000     0.095100000000     0.0238535  
H301     H      0.251640000000     0.593810000000     0.973890000000     0.0340881  
H302     H      0.275690000000     0.559050000000     0.956880000000     0.025754   
H303     H      0.249050000000     0.557650000000     0.045180000000     0.0510229  
H304     H      0.262380000000     0.513380000000     0.029650000000     0.0445898  
H305     H      0.200160000000     0.490110000000     0.955930000000     0.0985338  
H306     H      0.342950000000     0.577080000000     0.009920000000     0.0557618  
H307     H      0.331080000000     0.623660000000     0.022190000000     0.0446292  
H308     H      0.410070000000     0.641400000000     0.086750000000     0.0983466  
H309     H      0.760190000000     0.778790000000     0.656660000000     0.0246403  
H310     H      0.752830000000     0.725780000000     0.636590000000     0.0405152  
H311     H      0.880650000000     0.833250000000     0.551960000000     0.0374485  
H312     H      0.826480000000     0.830140000000     0.527070000000     0.0283539  
H313     H      0.821720000000     0.765020000000     0.587660000000     0.0464656  
H314     H      0.839630000000     0.811800000000     0.621530000000     0.0475334  
H315     H      0.839900000000     0.890790000000     0.583030000000     0.0983221  
H316     H      0.765540000000     0.820740000000     0.588350000000     0.0418932  
H317     H      0.748590000000     0.767210000000     0.563080000000     0.0460577  
H318     H      0.679050000000     0.756570000000     0.639160000000     0.0970142  
H319     H      0.264360000000     0.228030000000     0.439000000000     0.0373444  
H320     H      0.292930000000     0.292280000000     0.439130000000     0.0244297  
H321     H      0.388880000000     0.315680000000     0.573310000000     0.0316562  
H322     H      0.383480000000     0.265420000000     0.550290000000     0.022445   
H323     H      0.311280000000     0.283800000000     0.542540000000     0.0401389  
H324     H      0.344930000000     0.331250000000     0.504380000000     0.045217   
H325     H      0.439650000000     0.317540000000     0.501120000000     0.0943941  
H326     H      0.349910000000     0.265450000000     0.468070000000     0.0418402  
H327     H      0.308060000000     0.221330000000     0.504030000000     0.0482401  
H328     H      0.246530000000     0.286770000000     0.493800000000     0.0927961  
H329     H      0.740850000000     0.028690000000     0.409010000000     0.0239055  
H330     H      0.727530000000     0.076540000000     0.412750000000     0.0348222  
H331     H      0.836190000000     0.057700000000     0.432500000000     0.0277872  
H332     H      0.882190000000     0.119180000000     0.438370000000     0.0390573  
H333     H      0.826800000000     0.128750000000     0.481860000000     0.0425105  
H334     H      0.810480000000     0.124150000000     0.428190000000     0.0410793  
H335     H      0.842790000000     0.059730000000     0.517630000000     0.0980951  
H336     H      0.767090000000     0.028430000000     0.482850000000     0.0443241  
H337     H      0.749550000000     0.071380000000     0.491290000000     0.0502322  
H338     H      0.667690000000     0.972910000000     0.437660000000     0.0979727  
H339     H      0.278430000000     0.072390000000     0.510260000000     0.0326556  
H340     H      0.298540000000     0.126170000000     0.536460000000     0.0323221  
H341     H      0.381770000000     0.091880000000     0.661550000000     0.0251713  
H342     H      0.371110000000     0.049750000000     0.625600000000     0.0366611  
H343     H      0.317090000000     0.091570000000     0.622930000000     0.0414342  
H344     H      0.364920000000     0.143420000000     0.598320000000     0.0426994  
H345     H      0.447310000000     0.156820000000     0.621790000000     0.0965427  
H346     H      0.360320000000     0.098240000000     0.540750000000     0.0461733  
H347     H      0.318760000000     0.041590000000     0.566070000000     0.0435037  
H348     H      0.246940000000     0.040060000000     0.592740000000     0.0971223  
H349     H      0.055080000000     0.896530000000     0.423260000000     0.0355163  
H350     H      0.092280000000     0.911310000000     0.380940000000     0.0254577  
H351     H      0.126950000000     0.788220000000     0.421470000000     0.0409792  
H352     H      0.168120000000     0.840400000000     0.447110000000     0.0267643  
H353     H      0.102510000000     0.841290000000     0.389840000000     0.0392843  
H354     H      0.061440000000     0.813950000000     0.430440000000     0.0451151  
H355     H      0.110640000000     0.807810000000     0.506250000000     0.0967323  
H356     H      0.112790000000     0.884500000000     0.472200000000     0.0442366  
H357     H      0.157530000000     0.909670000000     0.434250000000     0.0433116  
H358     H      0.152640000000     0.986080000000     0.409240000000     0.0972728  
H359     H      0.999660000000     0.360940000000     0.638760000000     0.0386069  
H360     H      0.953650000000     0.312100000000     0.611640000000     0.0279891  
H361     H      0.055070000000     0.243050000000     0.625040000000     0.0387574  
H362     H      0.021970000000     0.227540000000     0.670220000000     0.0268151  
H363     H      0.994450000000     0.257870000000     0.582280000000     0.046547   
H364     H      0.955410000000     0.235780000000     0.624690000000     0.0422104  
H365     H      0.955980000000     0.155180000000     0.639630000000     0.09811    
H366     H      0.018180000000     0.302240000000     0.666120000000     0.0402412  
H367     H      0.056500000000     0.326080000000     0.623620000000     0.0462852  
H368     H      0.013690000000     0.343780000000     0.552670000000     0.0967593  
H369     H      0.922600000000     0.941530000000     0.835860000000     0.0348191  
H370     H      0.980860000000     0.993010000000     0.826420000000     0.0368781  
H371     H      0.911700000000     0.903520000000     0.710670000000     0.0272999  
H372     H      0.913680000000     0.958390000000     0.687850000000     0.0405264  
H373     H      0.961580000000     0.000640000000     0.750700000000     0.0475326  
H374     H      0.902010000000     0.952450000000     0.760250000000     0.0408844  
H375     H      0.000440000000     0.942740000000     0.711070000000     0.0941556  
H376     H      0.935930000000     0.896380000000     0.786660000000     0.0441109  
H377     H      0.995760000000     0.946210000000     0.779490000000     0.0479455  
H378     H      0.985230000000     0.902740000000     0.855800000000     0.100182   
H379     H      0.169110000000     0.159940000000     0.308500000000     0.0251584  
H380     H      0.173290000000     0.124310000000     0.353810000000     0.0395881  
H381     H      0.083860000000     0.035360000000     0.236300000000     0.037266   
H382     H      0.032570000000     0.014290000000     0.267020000000     0.0281071  
H383     H      0.109600000000     0.121130000000     0.250500000000     0.0444886  
H384     H      0.060340000000     0.097770000000     0.283740000000     0.0440599  
H385     H      0.019490000000     0.080540000000     0.215390000000     0.097319   
H386     H      0.095580000000     0.052430000000     0.329870000000     0.0478025  
H387     H      0.143620000000     0.073750000000     0.295740000000     0.0400751  
H388     H      0.096600000000     0.154710000000     0.331000000000     0.0964183  
H389     H      0.812180000000     0.795060000000     0.967170000000     0.0315278  
H390     H      0.807620000000     0.737950000000     0.960700000000     0.0211579  
H391     H      0.744640000000     0.690040000000     0.085140000000     0.0388608  
H392     H      0.764340000000     0.752240000000     0.091420000000     0.0305288  
H393     H      0.732570000000     0.705200000000     0.008370000000     0.0458701  
H394     H      0.749830000000     0.767080000000     0.015130000000     0.0420448  
H395     H      0.685500000000     0.739870000000     0.080410000000     0.0983893  
H396     H      0.830570000000     0.778510000000     0.046090000000     0.0586098  
H397     H      0.813530000000     0.718270000000     0.034660000000     0.0452781  
H398     H      0.891360000000     0.772620000000     0.968910000000     0.0969228  
H399     H      0.283200000000     0.338680000000     0.008890000000     0.0338429  
H400     H      0.266200000000     0.284930000000     0.984370000000     0.0231116  
H401     H      0.211260000000     0.195170000000     0.099350000000     0.0315698  
H402     H      0.213940000000     0.246070000000     0.119700000000     0.0209679  
H403     H      0.197760000000     0.229350000000     0.027050000000     0.0460497  
H404     H      0.205280000000     0.281650000000     0.049640000000     0.0414212  
H405     H      0.130730000000     0.216240000000     0.105530000000     0.0955198  
H406     H      0.288360000000     0.298690000000     0.077450000000     0.0421828  
H407     H      0.279980000000     0.246210000000     0.054650000000     0.0425815  
H408     H      0.344550000000     0.292950000000     0.997750000000     0.0964832  
H409     H      0.790410000000     0.944540000000     0.080440000000     0.0373056  
H410     H      0.795890000000     0.947390000000     0.135660000000     0.0294404  
H411     H      0.637010000000     0.925110000000     0.105730000000     0.033457   
H412     H      0.680210000000     0.983620000000     0.122150000000     0.0352458  
H413     H      0.706650000000     0.919150000000     0.130310000000     0.0396764  
H414     H      0.704070000000     0.920490000000     0.075030000000     0.0431681  
H415     H      0.688730000000     0.983980000000     0.034180000000     0.0985569  
H416     H      0.765950000000     0.009120000000     0.071710000000     0.0471186  
H417     H      0.767140000000     0.007760000000     0.127180000000     0.0436133  
H418     H      0.855390000000     0.041270000000     0.115980000000     0.0987109  
H419     H      0.217100000000     0.992350000000     0.049600000000     0.0343969  
H420     H      0.238960000000     0.964670000000     0.019760000000     0.0253374  
H421     H      0.318020000000     0.135380000000     0.988370000000     0.0202937  
H422     H      0.363510000000     0.136210000000     0.025680000000     0.0291397  
H423     H      0.315520000000     0.044510000000     0.037550000000     0.0598757  
H424     H      0.285970000000     0.075850000000     0.050350000000     0.0383279  
H425     H      0.351550000000     0.115040000000     0.939690000000     0.096162   
H426     H      0.235650000000     0.057940000000     0.986020000000     0.0524843  
H427     H      0.267100000000     0.031100000000     0.967160000000     0.0495223  
H428     H      0.168090000000     0.935860000000     0.977880000000     0.0976924  
H429     H      0.073930000000     0.818350000000     0.040200000000     0.0362197  
H430     H      0.077700000000     0.780590000000     0.084350000000     0.0215587  
H431     H      0.940060000000     0.659200000000     0.045510000000     0.038207   
H432     H      0.933600000000     0.698090000000     0.003610000000     0.0244798  
H433     H      0.029700000000     0.707540000000     0.042990000000     0.0512718  
H434     H      0.023620000000     0.745200000000     0.999370000000     0.0444559  
H435     H      0.955840000000     0.664070000000     0.955810000000     0.0983802  
H436     H      0.983060000000     0.772520000000     0.042640000000     0.060195   
H437     H      0.988580000000     0.734640000000     0.086420000000     0.0519152  
H438     H      0.058200000000     0.820470000000     0.128200000000     0.0966143  
H439     H      0.095280000000     0.332460000000     0.023700000000     0.0367951  
H440     H      0.101040000000     0.293380000000     0.065870000000     0.0229317  
H441     H      0.956850000000     0.177120000000     0.033060000000     0.0371538  
H442     H      0.952830000000     0.214720000000     0.988970000000     0.0220972  
H443     H      0.047330000000     0.219190000000     0.027320000000     0.0553597  
H444     H      0.041610000000     0.257430000000     0.983910000000     0.0450419  
H445     H      0.969340000000     0.172730000000     0.944430000000     0.0990095  
H446     H      0.005610000000     0.287990000000     0.029110000000     0.0547256  
H447     H      0.011650000000     0.249870000000     0.072370000000     0.0464373  
H448     H      0.082310000000     0.330460000000     0.113660000000     0.0974242  
N1       N      0.562680000000     0.583250000000     0.736210000000    -0.21847    
N2       N      0.484090000000     0.420490000000     0.880140000000    -0.219252   
N3       N      0.569120000000     0.621130000000     0.200160000000    -0.21849    
N4       N      0.534640000000     0.501870000000     0.372000000000    -0.217997   
N5       N      0.606790000000     0.900260000000     0.604070000000    -0.218652   
N6       N      0.510120000000     0.714070000000     0.508570000000    -0.217735   
N7       N      0.588830000000     0.372240000000     0.599230000000    -0.219307   
N8       N      0.501660000000     0.217150000000     0.470770000000    -0.21962    
N9       N      0.646810000000     0.171950000000     0.690660000000    -0.217258   
N10      N      0.588380000000     0.104040000000     0.839500000000    -0.218209   
N11      N      0.482380000000     0.955990000000     0.376910000000    -0.218885   
N12      N      0.438800000000     0.985780000000     0.188380000000    -0.219376   
N13      N      0.533050000000     0.896690000000     0.921380000000    -0.21923    
N14      N      0.516170000000     0.696110000000     0.947500000000    -0.218172   
N15      N      0.503490000000     0.168900000000     0.132740000000    -0.217797   
N16      N      0.476560000000     0.323090000000     0.136550000000    -0.219079   
N17      N      0.716460000000     0.274160000000     0.542270000000    -0.217101   
N18      N      0.904790000000     0.397390000000     0.447040000000    -0.217115   
N19      N      0.401400000000     0.848680000000     0.531840000000    -0.219243   
N20      N      0.213930000000     0.743790000000     0.628440000000    -0.218254   
N21      N      0.714230000000     0.519190000000     0.497820000000    -0.219915   
N22      N      0.930270000000     0.663790000000     0.537060000000    -0.21902    
N23      N      0.205100000000     0.509050000000     0.498650000000    -0.218089   
N24      N      0.388850000000     0.563930000000     0.616130000000    -0.218623   
N25      N      0.059990000000     0.491730000000     0.856400000000    -0.218829   
N26      N      0.012870000000     0.598420000000     0.700400000000    -0.221788   
N27      N      0.123170000000     0.562570000000     0.364220000000    -0.217561   
N28      N      0.978490000000     0.497140000000     0.212690000000    -0.213676   
N29      N      0.718070000000     0.185840000000     0.967770000000    -0.218115   
N30      N      0.920190000000     0.291760000000     0.980590000000    -0.21963    
N31      N      0.303740000000     0.897890000000     0.056790000000    -0.217713   
N32      N      0.118810000000     0.704860000000     0.085940000000    -0.219519   
N33      N      0.835690000000     0.482890000000     0.089820000000    -0.219238   
N34      N      0.636020000000     0.426150000000     0.001260000000    -0.217948   
N35      N      0.203130000000     0.518830000000     0.970650000000    -0.218666   
N36      N      0.392510000000     0.605350000000     0.079680000000    -0.220041   
N37      N      0.863750000000     0.885770000000     0.567530000000    -0.216567   
N38      N      0.692630000000     0.737480000000     0.626560000000    -0.218124   
N39      N      0.427000000000     0.333400000000     0.519060000000    -0.218574   
N40      N      0.241510000000     0.254630000000     0.483750000000    -0.217788   
N41      N      0.866050000000     0.072530000000     0.493520000000    -0.218606   
N42      N      0.680380000000     0.009080000000     0.442650000000    -0.219362   
N43      N      0.432050000000     0.120420000000     0.616210000000    -0.217238   
N44      N      0.245620000000     0.061370000000     0.566070000000    -0.217954   
N45      N      0.112280000000     0.788020000000     0.483880000000    -0.217415   
N46      N      0.119210000000     0.965280000000     0.422060000000    -0.219055   
N47      N      0.989820000000     0.175040000000     0.627420000000    -0.210245   
N48      N      0.011110000000     0.362620000000     0.575380000000    -0.219404   
N49      N      0.980800000000     0.958370000000     0.694910000000    -0.21528    
N50      N      0.981460000000     0.932410000000     0.860940000000    -0.219593   
N51      N      0.031790000000     0.056340000000     0.211870000000    -0.218506   
N52      N      0.115470000000     0.140210000000     0.350230000000    -0.217324   
N53      N      0.691020000000     0.711640000000     0.074180000000    -0.218518   
N54      N      0.876640000000     0.791790000000     0.979640000000    -0.219273   
N55      N      0.146070000000     0.198120000000     0.093980000000    -0.21959    
N56      N      0.338040000000     0.319410000000     0.006870000000    -0.218574   
N57      N      0.666630000000     0.979810000000     0.057340000000    -0.217784   
N58      N      0.847320000000     0.009640000000     0.102900000000    -0.218539   
N59      N      0.358700000000     0.105600000000     0.970420000000    -0.219188   
N60      N      0.175260000000     0.964420000000     0.995080000000    -0.219308   
N61      N      0.959570000000     0.653780000000     0.987070000000    -0.218338   
N62      N      0.053690000000     0.828120000000     0.096490000000    -0.219504   
N63      N      0.973420000000     0.164750000000     0.976150000000    -0.220089   
N64      N      0.078710000000     0.340670000000     0.082360000000    -0.219335   
O1       O      0.135900000000     0.132890000000     0.063730000000    -0.384348   
O2       O      0.071620000000     0.135620000000     0.083960000000    -0.377811   
O3       O      0.985380000000     0.983770000000     0.904800000000    -0.38456    
O4       O      0.006560000000     0.926190000000     0.928110000000    -0.380518   
O5       O      0.983330000000     0.103040000000     0.961490000000    -0.381866   
O6       O      0.987840000000     0.118470000000     0.028360000000    -0.372195   
O7       O      0.149690000000     0.011660000000     0.018600000000    -0.371366   
O8       O      0.097230000000     0.945020000000     0.985660000000    -0.380344   
O9       O      0.150320000000     0.110400000000     0.971650000000    -0.363589   
O10      O      0.189060000000     0.088080000000     0.066690000000    -0.516554   
O11      O      0.055470000000     0.093380000000     0.912010000000    -0.529436   
O12      O      0.931430000000     0.029540000000     0.910150000000    -0.335264   
O13      O      0.050180000000     0.079730000000     0.011960000000    -0.5024     
O14      O      0.059020000000     0.014640000000     0.976540000000    -0.631465   
O15      O      0.042910000000     0.889410000000     0.111180000000    -0.379958   
O16      O      0.036830000000     0.872800000000     0.044360000000    -0.374078   
O17      O      0.873390000000     0.966450000000     0.073680000000    -0.384454   
O18      O      0.925690000000     0.043260000000     0.089660000000    -0.37356    
O19      O      0.887570000000     0.858580000000     0.007360000000    -0.378315   
O20      O      0.951610000000     0.853920000000     0.989370000000    -0.374957   
O21      O      0.033930000000     0.005240000000     0.170280000000    -0.38316    
O22      O      0.010400000000     0.060500000000     0.144220000000    -0.377456   
O23      O      0.970350000000     0.895690000000     0.161640000000    -0.5275     
O24      O      0.095590000000     0.966630000000     0.161960000000    -0.335876   
O25      O      0.866690000000     0.867660000000     0.091990000000    -0.357855   
O26      O      0.841700000000     0.918600000000     0.998680000000    -0.523323   
O27      O      0.973950000000     0.911310000000     0.061470000000    -0.627299   
O28      O      0.964910000000     0.975710000000     0.095920000000    -0.49551    
O29      O      0.073570000000     0.975250000000     0.057080000000    -0.492952   
O30      O      0.949140000000     0.014910000000     0.015710000000    -0.63451    
O31      O      0.065820000000     0.039280000000     0.090670000000    -0.632535   
O32      O      0.958080000000     0.951670000000     0.982080000000    -0.497463   
O33      O      0.062830000000     0.961520000000     0.461340000000    -0.383043   
O34      O      0.133330000000     0.031260000000     0.451910000000    -0.377645   
O35      O      0.936290000000     0.085930000000     0.470720000000    -0.382354   
O36      O      0.916530000000     0.055420000000     0.536790000000    -0.376452   
O37      O      0.064450000000     0.124000000000     0.399570000000    -0.383835   
O38      O      0.129860000000     0.113510000000     0.415220000000    -0.371376   
O39      O      0.934900000000     0.920760000000     0.536240000000    -0.369076   
O40      O      0.914670000000     0.965380000000     0.570710000000    -0.374718   
O41      O      0.958230000000     0.934350000000     0.446940000000    -0.35044    
O42      O      0.013480000000     0.899510000000     0.533160000000    -0.529915   
O43      O      0.961220000000     0.046970000000     0.403340000000    -0.527325   
O44      O      0.013370000000     0.167590000000     0.427940000000    -0.342472   
O45      O      0.049880000000     0.044390000000     0.460880000000    -0.499036   
O46      O      0.975180000000     0.021510000000     0.501410000000    -0.627252   
O47      O      0.040430000000     0.995120000000     0.651080000000    -0.384715   
O48      O      0.974880000000     0.005670000000     0.638530000000    -0.375381   
O49      O      0.174600000000     0.215510000000     0.519420000000    -0.389126   
O50      O      0.195100000000     0.173050000000     0.482490000000    -0.376652   
O51      O      0.047020000000     0.176310000000     0.591030000000    -0.37467    
O52      O      0.978440000000     0.105900000000     0.604320000000    -0.371201   
O53      O      0.174280000000     0.046640000000     0.585660000000    -0.385814   
O54      O      0.198540000000     0.084070000000     0.522020000000    -0.373651   
O55      O      0.145060000000     0.092570000000     0.654190000000    -0.528197   
O56      O      0.112170000000     0.978290000000     0.637210000000    -0.329454   
O57      O      0.152260000000     0.195050000000     0.613500000000    -0.357162   
O58      O      0.104840000000     0.239590000000     0.530090000000    -0.517599   
O59      O      0.062510000000     0.091300000000     0.598240000000    -0.632247   
O60      O      0.138100000000     0.114520000000     0.556470000000    -0.50196    
O61      O      0.019240000000     0.995560000000     0.572680000000    -0.499411   
O62      O      0.093120000000     0.140280000000     0.484820000000    -0.633315   
O63      O      0.092540000000     0.017410000000     0.532470000000    -0.631488   
O64      O      0.019830000000     0.117970000000     0.525240000000    -0.503256   
O65      O      0.059420000000     0.394300000000     0.101410000000    -0.383542   
O66      O      0.062540000000     0.388730000000     0.033250000000    -0.374652   
O67      O      0.871170000000     0.450070000000     0.057640000000    -0.384655   
O68      O      0.916090000000     0.521330000000     0.087090000000    -0.378092   
O69      O      0.916270000000     0.351660000000     0.008100000000    -0.372768   
O70      O      0.983140000000     0.367390000000     0.977050000000    -0.375511   
O71      O      0.001430000000     0.467860000000     0.165940000000    -0.3964     
O72      O      0.996900000000     0.537040000000     0.148930000000    -0.368012   
O73      O      0.996070000000     0.380930000000     0.155800000000    -0.325433   
O74      O      0.105350000000     0.485130000000     0.155650000000    -0.524606   
O75      O      0.865100000000     0.358740000000     0.070450000000    -0.523703   
O76      O      0.863310000000     0.410330000000     0.971460000000    -0.360488   
O77      O      0.989450000000     0.413660000000     0.050800000000    -0.49459    
O78      O      0.966640000000     0.463700000000     0.088560000000    -0.632248   
O79      O      0.124810000000     0.645470000000     0.059610000000    -0.386447   
O80      O      0.058940000000     0.627840000000     0.093310000000    -0.380088   
O81      O      0.036600000000     0.523770000000     0.901800000000    -0.3776     
O82      O      0.045170000000     0.457270000000     0.921480000000    -0.379159   
O83      O      0.978650000000     0.600000000000     0.967620000000    -0.376247   
O84      O      0.977320000000     0.606730000000     0.036000000000    -0.371003   
O85      O      0.167100000000     0.550270000000     0.003510000000    -0.375131   
O86      O      0.123580000000     0.475970000000     0.978980000000    -0.376703   
O87      O      0.176580000000     0.640360000000     0.000930000000    -0.515426   
O88      O      0.175300000000     0.580850000000     0.095700000000    -0.36132    
O89      O      0.045320000000     0.614470000000     0.912280000000    -0.338127   
O90      O      0.934190000000     0.512230000000     0.911320000000    -0.527916   
O91      O      0.049290000000     0.581470000000     0.016640000000    -0.633782   
O92      O      0.072470000000     0.531610000000     0.978810000000    -0.495448   
O93      O      0.066460000000     0.538620000000     0.095590000000    -0.499676   
O94      O      0.973800000000     0.457050000000     0.972580000000    -0.628374   
O95      O      0.087930000000     0.486530000000     0.055050000000    -0.629497   
O96      O      0.952740000000     0.510000000000     0.013420000000    -0.494098   
O97      O      0.016960000000     0.432330000000     0.593180000000    -0.379165   
O98      O      0.036220000000     0.428450000000     0.529280000000    -0.373823   
O99      O      0.942690000000     0.605840000000     0.515690000000    -0.381543   
O100     O      0.997410000000     0.659480000000     0.559620000000    -0.370824   
O101     O      0.927290000000     0.467450000000     0.475630000000    -0.372994   
O102     O      0.983500000000     0.448030000000     0.461810000000    -0.370406   
O103     O      0.020210000000     0.551780000000     0.657480000000    -0.382663   
O104     O      0.039560000000     0.629810000000     0.636670000000    -0.379539   
O105     O      0.952300000000     0.456930000000     0.628260000000    -0.344328   
O106     O      0.072630000000     0.495340000000     0.661340000000    -0.52636    
O107     O      0.888910000000     0.502850000000     0.531490000000    -0.525182   
O108     O      0.931060000000     0.559640000000     0.435370000000    -0.354092   
O109     O      0.996640000000     0.495790000000     0.534280000000    -0.494624   
O110     O      0.998600000000     0.563800000000     0.570900000000    -0.626784   
O111     O      0.193170000000     0.677240000000     0.595160000000    -0.384917   
O112     O      0.137050000000     0.698590000000     0.604750000000    -0.375998   
O113     O      0.124010000000     0.605790000000     0.413720000000    -0.3776     
O114     O      0.079450000000     0.524000000000     0.420970000000    -0.375731   
O115     O      0.104410000000     0.717530000000     0.466740000000    -0.38278    
O116     O      0.088920000000     0.723440000000     0.531300000000    -0.373927   
O117     O      0.188870000000     0.559750000000     0.528480000000    -0.374433   
O118     O      0.129540000000     0.498140000000     0.493590000000    -0.375505   
O119     O      0.237530000000     0.659280000000     0.537250000000    -0.517482   
O120     O      0.187240000000     0.575600000000     0.620800000000    -0.362837   
O121     O      0.163550000000     0.702700000000     0.425970000000    -0.332833   
O122     O      0.045630000000     0.641900000000     0.397490000000    -0.532081   
O123     O      0.127760000000     0.656340000000     0.526150000000    -0.634077   
O124     O      0.124650000000     0.587420000000     0.489940000000    -0.491443   
O125     O      0.096030000000     0.593450000000     0.599800000000    -0.498608   
O126     O      0.027200000000     0.557830000000     0.460190000000    -0.63147    
O127     O      0.092940000000     0.524150000000     0.561890000000    -0.628407   
O128     O      0.030970000000     0.627150000000     0.498470000000    -0.502473   
O129     O      0.414480000000     0.090730000000     0.948760000000    -0.383473   
O130     O      0.398370000000     0.076390000000     0.016650000000    -0.382561   
O131     O      0.486290000000     0.912430000000     0.957770000000    -0.376558   
O132     O      0.561610000000     0.970980000000     0.942140000000    -0.380323   
O133     O      0.370440000000     0.912950000000     0.025430000000    -0.381527   
O134     O      0.366740000000     0.973280000000     0.052590000000    -0.379524   
O135     O      0.534530000000     0.096210000000     0.883810000000    -0.375456   
O136     O      0.587760000000     0.068760000000     0.903760000000    -0.374239   
O137     O      0.426500000000     0.037920000000     0.882910000000    -0.352345   
O138     O      0.499940000000     0.156970000000     0.907860000000    -0.521932   
O139     O      0.392740000000     0.921120000000     0.932000000000    -0.530467   
O140     O      0.419340000000     0.862280000000     0.018010000000    -0.335612   
O141     O      0.430070000000     0.011780000000     0.984180000000    -0.501068   
O142     O      0.496800000000     0.011370000000     0.946210000000    -0.630151   
O143     O      0.652430000000     0.168090000000     0.001850000000    -0.383111   
O144     O      0.654400000000     0.110790000000     0.968430000000    -0.376738   
O145     O      0.492420000000     0.993280000000     0.144010000000    -0.383973   
O146     O      0.433690000000     0.012700000000     0.121990000000    -0.377329   
O147     O      0.605590000000     0.988050000000     0.076890000000    -0.378951   
O148     O      0.629870000000     0.012020000000     0.011170000000    -0.376265   
O149     O      0.545320000000     0.157900000000     0.087780000000    -0.376114   
O150     O      0.465170000000     0.107030000000     0.091500000000    -0.374651   
O151     O      0.641910000000     0.175190000000     0.083890000000    -0.521181   
O152     O      0.584900000000     0.212820000000     0.004060000000    -0.359065   
O153     O      0.599510000000     0.041790000000     0.142440000000    -0.352066   
O154     O      0.517720000000     0.923720000000     0.118990000000    -0.526667   
O155     O      0.592600000000     0.069800000000     0.042330000000    -0.633776   
O156     O      0.526090000000     0.070030000000     0.079730000000    -0.50013    
O157     O      0.562080000000     0.107190000000     0.967890000000    -0.498951   
O158     O      0.460900000000     0.974430000000     0.058720000000    -0.635186   
O159     O      0.497080000000     0.108930000000     0.005600000000    -0.632677   
O160     O      0.526220000000     0.973550000000     0.020910000000    -0.497887   
O161     O      0.509210000000     0.153050000000     0.458040000000    -0.382059   
O162     O      0.535050000000     0.184580000000     0.520340000000    -0.375938   
O163     O      0.425580000000     0.924210000000     0.549990000000    -0.384816   
O164     O      0.477320000000     0.907960000000     0.521670000000    -0.377597   
O165     O      0.441050000000     0.061130000000     0.592550000000    -0.37422    
O166     O      0.503100000000     0.138000000000     0.593570000000    -0.375635   
O167     O      0.497720000000     0.019540000000     0.412310000000    -0.38236    
O168     O      0.515760000000     0.961420000000     0.441810000000    -0.377862   
O169     O      0.438840000000     0.060050000000     0.429940000000    -0.343852   
O170     O      0.556290000000     0.128320000000     0.397180000000    -0.528316   
O171     O      0.383680000000     0.983570000000     0.544070000000    -0.519318   
O172     O      0.443030000000     0.968070000000     0.635040000000    -0.356859   
O173     O      0.496470000000     0.083020000000     0.525570000000    -0.499171   
O174     O      0.487170000000     0.006410000000     0.499750000000    -0.631674   
O175     O      0.670150000000     0.065490000000     0.469390000000    -0.384627   
O176     O      0.612120000000     0.986610000000     0.474030000000    -0.374443   
O177     O      0.631120000000     0.109890000000     0.654030000000    -0.379387   
O178     O      0.600850000000     0.160360000000     0.630640000000    -0.377978   
O179     O      0.602150000000     0.966700000000     0.614380000000    -0.379967   
O180     O      0.577340000000     0.934640000000     0.552220000000    -0.376608   
O181     O      0.691870000000     0.198530000000     0.523940000000    -0.375139   
O182     O      0.639950000000     0.215080000000     0.551510000000    -0.380093   
O183     O      0.730370000000     0.132750000000     0.529360000000    -0.522647   
O184     O      0.677660000000     0.163060000000     0.440010000000    -0.355937   
O185     O      0.673410000000     0.052200000000     0.644750000000    -0.333834   
O186     O      0.557480000000     0.001380000000     0.674970000000    -0.52882    
O187     O      0.620690000000     0.040290000000     0.546020000000    -0.633814   
O188     O      0.629290000000     0.116660000000     0.572000000000    -0.497548   
O189     O      0.580460000000     0.059680000000     0.468570000000    -0.498155   
O190     O      0.535840000000     0.063260000000     0.603650000000    -0.630005   
O191     O      0.589730000000     0.138300000000     0.494560000000    -0.633858   
O192     O      0.526390000000     0.984850000000     0.577040000000    -0.500223   
O193     O      0.499910000000     0.402110000000     0.136700000000    -0.385505   
O194     O      0.486650000000     0.369210000000     0.075540000000    -0.374467   
O195     O      0.396720000000     0.540880000000     0.061880000000    -0.384622   
O196     O      0.464840000000     0.611250000000     0.074220000000    -0.377541   
O197     O      0.368400000000     0.395120000000     0.027820000000    -0.384165   
O198     O      0.418050000000     0.368170000000     0.011830000000    -0.377166   
O199     O      0.548960000000     0.553250000000     0.169070000000    -0.377646   
O200     O      0.546130000000     0.617360000000     0.132170000000    -0.374127   
O201     O      0.464690000000     0.455770000000     0.179510000000    -0.353382   
O202     O      0.583350000000     0.482890000000     0.171580000000    -0.524111   
O203     O      0.363220000000     0.439290000000     0.102490000000    -0.536209   
O204     O      0.349590000000     0.474540000000     0.998150000000    -0.356357   
O205     O      0.459950000000     0.441120000000     0.076400000000    -0.498325   
O206     O      0.475190000000     0.524000000000     0.096310000000    -0.631703   
O207     O      0.659820000000     0.634540000000     0.057040000000    -0.380117   
O208     O      0.610680000000     0.664460000000     0.067480000000    -0.378096   
O209     O      0.494190000000     0.483980000000     0.912560000000    -0.38656    
O210     O      0.490930000000     0.417380000000     0.950060000000    -0.373189   
O211     O      0.510640000000     0.623100000000     0.947250000000    -0.379917   
O212     O      0.527420000000     0.657770000000     0.007920000000    -0.372865   
O213     O      0.632290000000     0.491430000000     0.018060000000    -0.379509   
O214     O      0.564220000000     0.419430000000     0.011070000000    -0.377804   
O215     O      0.667300000000     0.594440000000     0.982120000000    -0.5283     
O216     O      0.677610000000     0.553710000000     0.085230000000    -0.348123   
O217     O      0.569520000000     0.590330000000     0.908170000000    -0.35729    
O218     O      0.444650000000     0.537660000000     0.907160000000    -0.522476   
O219     O      0.569470000000     0.591040000000     0.006330000000    -0.630859   
O220     O      0.553500000000     0.507400000000     0.986730000000    -0.502256   
O221     O      0.575870000000     0.560910000000     0.091080000000    -0.499342   
O222     O      0.452880000000     0.470850000000     0.991310000000    -0.632922   
O223     O      0.560150000000     0.477460000000     0.072230000000    -0.63241    
O224     O      0.468590000000     0.553330000000     0.010960000000    -0.493301   
O225     O      0.576880000000     0.430330000000     0.620240000000    -0.379911   
O226     O      0.576510000000     0.423750000000     0.551610000000    -0.374804   
O227     O      0.412960000000     0.519970000000     0.585220000000    -0.377207   
O228     O      0.467970000000     0.590790000000     0.611460000000    -0.374812   
O229     O      0.434280000000     0.401570000000     0.541670000000    -0.379925   
O230     O      0.492290000000     0.405440000000     0.504660000000    -0.378686   
O231     O      0.566370000000     0.538440000000     0.689310000000    -0.380569   
O232     O      0.552520000000     0.601500000000     0.668030000000    -0.376733   
O233     O      0.511060000000     0.433890000000     0.675660000000    -0.350466   
O234     O      0.636210000000     0.509570000000     0.672880000000    -0.522754   
O235     O      0.394590000000     0.425080000000     0.604010000000    -0.523913   
O236     O      0.389680000000     0.467860000000     0.502960000000    -0.365172   
O237     O      0.513550000000     0.460580000000     0.573850000000    -0.496589   
O238     O      0.505210000000     0.521090000000     0.613690000000    -0.631367   
O239     O      0.679340000000     0.674640000000     0.591450000000    -0.379246   
O240     O      0.616430000000     0.680110000000     0.611160000000    -0.376762   
O241     O      0.535260000000     0.549540000000     0.418720000000    -0.38375    
O242     O      0.549450000000     0.486690000000     0.439890000000    -0.378655   
O243     O      0.521520000000     0.655190000000     0.488700000000    -0.374283   
O244     O      0.529620000000     0.667680000000     0.556840000000    -0.374292   
O245     O      0.691250000000     0.565440000000     0.526570000000    -0.383792   
O246     O      0.636180000000     0.499660000000     0.493810000000    -0.376662   
O247     O      0.691620000000     0.667080000000     0.496060000000    -0.5294     
O248     O      0.729810000000     0.628610000000     0.585710000000    -0.333606   
O249     O      0.594300000000     0.657000000000     0.434450000000    -0.354441   
O250     O      0.470250000000     0.581900000000     0.433000000000    -0.521293   
O251     O      0.592020000000     0.629950000000     0.533900000000    -0.628652   
O252     O      0.599560000000     0.568630000000     0.493380000000    -0.501603   
O253     O      0.606830000000     0.583710000000     0.610450000000    -0.495768   
O254     O      0.497380000000     0.505190000000     0.497040000000    -0.630866   
O255     O      0.613040000000     0.522320000000     0.571600000000    -0.63448    
O256     O      0.491480000000     0.566790000000     0.537110000000    -0.49242    
Zr1      Zr     0.110710000000     0.057760000000     0.031830000000     1.36758    
Zr2      Zr     0.996810000000     0.034750000000     0.958540000000     1.39041    
Zr3      Zr     0.027430000000     0.956510000000     0.115130000000     1.36873    
Zr4      Zr     0.913080000000     0.932320000000     0.040830000000     1.38033    
Zr5      Zr     0.002970000000     0.058430000000     0.070070000000     1.36694    
Zr6      Zr     0.019960000000     0.931630000000     0.002480000000     1.36969    
Zr7      Zr     0.012490000000     0.972660000000     0.505260000000     1.36945    
Zr8      Zr     0.013480000000     0.093880000000     0.458170000000     1.37383    
Zr9      Zr     0.098940000000     0.041900000000     0.599400000000     1.37485    
Zr10     Zr     0.099650000000     0.162380000000     0.552820000000     1.37353    
Zr11     Zr     0.129800000000     0.090380000000     0.488730000000     1.37324    
Zr12     Zr     0.983030000000     0.045580000000     0.569220000000     1.38492    
Zr13     Zr     0.034790000000     0.453730000000     0.109470000000     1.37153    
Zr14     Zr     0.922970000000     0.425900000000     0.028730000000     1.37495    
Zr15     Zr     0.116470000000     0.570480000000     0.038560000000     1.37015    
Zr16     Zr     0.004450000000     0.541460000000     0.957930000000     1.36353    
Zr17     Zr     0.041940000000     0.447250000000     0.995730000000     1.37035    
Zr18     Zr     0.998440000000     0.548570000000     0.073390000000     1.37897    
Zr19     Zr     0.030620000000     0.513420000000     0.602080000000     1.36671    
Zr20     Zr     0.966390000000     0.547020000000     0.502370000000     1.38144    
Zr21     Zr     0.157300000000     0.604410000000     0.558130000000     1.37614    
Zr22     Zr     0.093080000000     0.637650000000     0.458730000000     1.37723    
Zr23     Zr     0.058780000000     0.507410000000     0.493210000000     1.36484    
Zr24     Zr     0.064730000000     0.643970000000     0.566780000000     1.37175    
Zr25     Zr     0.482150000000     0.078100000000     0.939920000000     1.3743     
Zr26     Zr     0.446680000000     0.946180000000     0.992270000000     1.36897    
Zr27     Zr     0.576350000000     0.135400000000     0.034310000000     1.37708    
Zr28     Zr     0.540540000000     0.003630000000     0.086650000000     1.3803     
Zr29     Zr     0.446750000000     0.041760000000     0.050350000000     1.37983    
Zr30     Zr     0.576460000000     0.040280000000     0.975850000000     1.38067    
Zr31     Zr     0.519190000000     0.081640000000     0.459460000000     1.3784     
Zr32     Zr     0.466050000000     0.008460000000     0.566540000000     1.37249    
Zr33     Zr     0.650130000000     0.115170000000     0.505200000000     1.37716    
Zr34     Zr     0.597190000000     0.041210000000     0.611980000000     1.37421    
Zr35     Zr     0.567310000000     0.137870000000     0.561690000000     1.37682    
Zr36     Zr     0.549350000000     0.984980000000     0.510270000000     1.37771    
Zr37     Zr     0.521300000000     0.486900000000     0.125260000000     1.38002    
Zr38     Zr     0.415180000000     0.479040000000     0.045990000000     1.37477    
Zr39     Zr     0.613410000000     0.551860000000     0.036950000000     1.37652    
Zr40     Zr     0.507970000000     0.545110000000     0.957780000000     1.38492    
Zr41     Zr     0.498760000000     0.433590000000     0.022000000000     1.37833    
Zr42     Zr     0.529850000000     0.597940000000     0.060680000000     1.37749    
Zr43     Zr     0.566470000000     0.499460000000     0.629790000000     1.37997    
Zr44     Zr     0.453010000000     0.482640000000     0.556800000000     1.36987    
Zr45     Zr     0.651570000000     0.605960000000     0.550670000000     1.37054    
Zr46     Zr     0.537720000000     0.589900000000     0.478490000000     1.37722    
Zr47     Zr     0.559610000000     0.484660000000     0.514650000000     1.37642    
Zr48     Zr     0.545590000000     0.605580000000     0.593140000000     1.37463    


