data_structure

_audit_creation_method RASPA-1.0
_audit_creation_date 2023-6-4
_audit_author_name 'Poobodin Mano'

_cell_length_a    42.1672
_cell_length_b    46.0553
_cell_length_c    46.6624
_cell_angle_alpha 82.7768
_cell_angle_beta  96.3124
_cell_angle_gamma 119.436
_cell_volume      78172.9

_symmetry_cell_setting          triclinic
_symmetry_space_group_name_Hall 'P 1'
_symmetry_space_group_name_H-M  'P 1'
_symmetry_Int_Tables_number     1

_symmetry_equiv_pos_as_xyz 'x,y,z'

loop_
_atom_site_label
_atom_site_type_symbol
_atom_site_fract_x
_atom_site_fract_y
_atom_site_fract_z
_atom_site_charge
C1       C      0.142680000000     0.082810000000     0.025690000000     0.399514   
C2       C      0.981630000000     0.985590000000     0.900370000000     0.393905   
C3       C      0.060240000000     0.112970000000     0.994270000000     0.399599   
C4       C      0.069990000000     0.953730000000     0.938780000000     0.393755   
C5       C      0.987310000000     0.878270000000     0.006900000000     0.402179   
C6       C      0.977730000000     0.029150000000     0.067610000000     0.380292   
C7       C      0.902140000000     0.908100000000     0.976310000000     0.395428   
C8       C      0.058890000000     0.003770000000     0.102420000000     0.400618   
C9       C      0.043050000000     0.918700000000     0.465040000000     0.394504   
C10      C      0.899560000000     0.987620000000     0.475490000000     0.393725   
C11      C      0.040720000000     0.998570000000     0.401870000000     0.395765   
C12      C      0.907980000000     0.911230000000     0.542400000000     0.39121    
C13      C      0.995370000000     0.994120000000     0.600560000000     0.398691   
C14      C      0.130740000000     0.085250000000     0.460790000000     0.393165   
C15      C      0.992350000000     0.078570000000     0.533780000000     0.396488   
C16      C      0.140760000000     0.015400000000     0.525840000000     0.397373   
C17      C      0.057330000000     0.411940000000     0.995250000000     0.398756   
C18      C      0.931460000000     0.485460000000     0.060160000000     0.3984     
C19      C      0.939010000000     0.382110000000     0.969210000000     0.395446   
C20      C      0.055380000000     0.505970000000     0.100140000000     0.393588   
C21      C      0.098530000000     0.605340000000     0.027570000000     0.393406   
C22      C      0.987830000000     0.486170000000     0.896780000000     0.401389   
C23      C      0.978100000000     0.573800000000     0.003480000000     0.398102   
C24      C      0.097190000000     0.506950000000     0.930410000000     0.384394   
C25      C      0.999140000000     0.385910000000     0.515490000000     0.397061   
C26      C      0.920120000000     0.520010000000     0.515930000000     0.39922    
C27      C      0.930410000000     0.397160000000     0.453520000000     0.40097    
C28      C      0.996220000000     0.503490000000     0.594580000000     0.400317   
C29      C      0.099310000000     0.595670000000     0.544770000000     0.39416    
C30      C      0.040690000000     0.494460000000     0.399110000000     0.398226   
C31      C      0.030350000000     0.609570000000     0.476270000000     0.391414   
C32      C      0.109540000000     0.485200000000     0.471730000000     0.380472   
C33      C      0.394810000000     0.971580000000     0.973490000000     0.394593   
C34      C      0.550820000000     0.915370000000     0.975400000000     0.396023   
C35      C      0.410320000000     0.909780000000     0.044900000000     0.393865   
C36      C      0.542210000000     0.993660000000     0.901260000000     0.392933   
C37      C      0.628290000000     0.082250000000     0.955790000000     0.390953   
C38      C      0.495930000000     0.000410000000     0.097920000000     0.392341   
C39      C      0.639510000000     0.011530000000     0.027580000000     0.393018   
C40      C      0.491070000000     0.076750000000     0.029270000000     0.396295   
C41      C      0.548330000000     0.109730000000     0.494070000000     0.398046   
C42      C      0.393370000000     0.904080000000     0.480650000000     0.398321   
C43      C      0.470760000000     0.036250000000     0.563230000000     0.391309   
C44      C      0.473750000000     0.983330000000     0.399290000000     0.397634   
C45      C      0.554150000000     0.959040000000     0.430700000000     0.373094   
C46      C      0.559090000000     0.004080000000     0.600320000000     0.389616   
C47      C      0.477290000000     0.875620000000     0.507440000000     0.399611   
C48      C      0.635980000000     0.082740000000     0.519000000000     0.393661   
C49      C      0.499910000000     0.385230000000     0.016730000000     0.393274   
C50      C      0.429100000000     0.523630000000     0.020100000000     0.396815   
C51      C      0.429830000000     0.396500000000     0.959500000000     0.400812   
C52      C      0.505500000000     0.507070000000     0.095930000000     0.396521   
C53      C      0.609670000000     0.597340000000     0.041130000000     0.394385   
C54      C      0.537190000000     0.491250000000     0.898670000000     0.399638   
C55      C      0.538830000000     0.611480000000     0.976800000000     0.390384   
C56      C      0.608560000000     0.480000000000     0.969130000000     0.377107   
C57      C      0.554510000000     0.414590000000     0.493430000000     0.398882   
C58      C      0.432330000000     0.490970000000     0.559460000000     0.401157   
C59      C      0.438630000000     0.386580000000     0.468470000000     0.398407   
C60      C      0.554660000000     0.508120000000     0.599400000000     0.394263   
C61      C      0.600110000000     0.609260000000     0.527770000000     0.391798   
C62      C      0.487050000000     0.491380000000     0.395680000000     0.402468   
C63      C      0.477790000000     0.577440000000     0.504010000000     0.399374   
C64      C      0.595860000000     0.510200000000     0.430270000000     0.380375   
C65      C      0.570180000000     0.485210000000     0.643900000000     0.0675591  
C66      C      0.573510000000     0.482580000000     0.674060000000    -0.0935125  
C67      C      0.568610000000     0.504070000000     0.689430000000     0.0484405  
C68      C      0.561160000000     0.528360000000     0.674070000000    -0.0935622  
C69      C      0.557330000000     0.529900000000     0.643910000000     0.0695792  
C70      C      0.569540000000     0.500300000000     0.721370000000    -0.00734236 
C71      C      0.547780000000     0.469090000000     0.736090000000    -0.0361097  
C72      C      0.545250000000     0.466350000000     0.766040000000    -0.035693   
C73      C      0.564720000000     0.494740000000     0.781770000000    -0.00722416 
C74      C      0.588290000000     0.525480000000     0.767110000000    -0.0357247  
C75      C      0.590370000000     0.528300000000     0.737190000000    -0.036341   
C76      C      0.558100000000     0.493270000000     0.812680000000     0.0487515  
C77      C      0.552510000000     0.465590000000     0.832190000000    -0.092479   
C78      C      0.545300000000     0.465000000000     0.860950000000     0.0699642  
C79      C      0.549010000000     0.518320000000     0.851260000000     0.0704708  
C80      C      0.555960000000     0.519600000000     0.822610000000    -0.0938024  
C81      C      0.497770000000     0.533790000000     0.133460000000     0.0695736  
C82      C      0.491340000000     0.533760000000     0.162320000000    -0.0924058  
C83      C      0.487600000000     0.507000000000     0.182320000000     0.0488262  
C84      C      0.491210000000     0.481210000000     0.172880000000    -0.09379    
C85      C      0.497490000000     0.481970000000     0.144140000000     0.0707868  
C86      C      0.480920000000     0.505770000000     0.213130000000    -0.00704139 
C87      C      0.499940000000     0.534390000000     0.228620000000    -0.035588   
C88      C      0.497200000000     0.531900000000     0.258540000000    -0.0354885  
C89      C      0.475570000000     0.500750000000     0.273440000000    -0.0073384  
C90      C      0.455100000000     0.472550000000     0.257750000000    -0.0359961  
C91      C      0.457550000000     0.475070000000     0.227910000000    -0.0359073  
C92      C      0.476250000000     0.497170000000     0.305430000000     0.0495115  
C93      C      0.472670000000     0.519530000000     0.320690000000    -0.0938458  
C94      C      0.475220000000     0.516580000000     0.350890000000     0.0701138  
C95      C      0.484800000000     0.469930000000     0.351120000000     0.0720044  
C96      C      0.481850000000     0.471880000000     0.320960000000    -0.0936025  
C97      C      0.445920000000     0.606530000000     0.483400000000     0.0704436  
C98      C      0.436020000000     0.631160000000     0.484360000000    -0.0943341  
C99      C      0.446060000000     0.649280000000     0.508780000000     0.0486533  
C100     C      0.464110000000     0.640780000000     0.532490000000    -0.0943574  
C101     C      0.473480000000     0.615960000000     0.530860000000     0.0701856  
C102     C      0.441250000000     0.679090000000     0.508470000000    -0.0076117  
C103     C      0.449230000000     0.701720000000     0.483710000000    -0.035727   
C104     C      0.449600000000     0.732030000000     0.484280000000    -0.0356691  
C105     C      0.441990000000     0.740480000000     0.509620000000    -0.00775563 
C106     C      0.432530000000     0.717310000000     0.534070000000    -0.0362635  
C107     C      0.432110000000     0.686860000000     0.533490000000    -0.0364695  
C108     C      0.446740000000     0.774380000000     0.510840000000     0.0491663  
C109     C      0.436130000000     0.789830000000     0.486940000000    -0.0950304  
C110     C      0.445690000000     0.823410000000     0.486550000000     0.0717096  
C111     C      0.473850000000     0.826320000000     0.533760000000     0.070458   
C112     C      0.464920000000     0.792730000000     0.534780000000    -0.0941189  
C113     C      0.576200000000     0.161400000000     0.515790000000     0.0711225  
C114     C      0.584050000000     0.194520000000     0.515540000000    -0.0950938  
C115     C      0.573300000000     0.209530000000     0.491380000000     0.0491254  
C116     C      0.556030000000     0.191120000000     0.467360000000    -0.0947735  
C117     C      0.548580000000     0.157980000000     0.468320000000     0.0692708  
C118     C      0.577700000000     0.243330000000     0.492060000000    -0.00796002 
C119     C      0.568790000000     0.251800000000     0.516740000000    -0.0357717  
C120     C      0.569770000000     0.282450000000     0.516810000000    -0.0358715  
C121     C      0.579770000000     0.305370000000     0.492210000000    -0.00740113 
C122     C      0.589840000000     0.297370000000     0.467820000000    -0.0364747  
C123     C      0.588750000000     0.266570000000     0.467730000000    -0.0362368  
C124     C      0.577010000000     0.336280000000     0.491480000000     0.0488708  
C125     C      0.587070000000     0.354260000000     0.515970000000    -0.0939736  
C126     C      0.580150000000     0.380890000000     0.516040000000     0.0692448  
C127     C      0.555290000000     0.373440000000     0.467710000000     0.0713159  
C128     C      0.561660000000     0.346610000000     0.466960000000    -0.0935876  
C129     C      0.582360000000     0.002150000000     0.864590000000     0.0686775  
C130     C      0.588950000000     0.003940000000     0.835390000000    -0.091727   
C131     C      0.560580000000     0.997010000000     0.814080000000     0.0473095  
C132     C      0.526210000000     0.988760000000     0.822680000000    -0.0925093  
C133     C      0.520730000000     0.987740000000     0.851790000000     0.0675757  
C134     C      0.566120000000     0.998140000000     0.782940000000    -0.00696633 
C135     C      0.540840000000     0.972000000000     0.766390000000    -0.0362934  
C136     C      0.543970000000     0.973830000000     0.736650000000    -0.0359222  
C137     C      0.572310000000     0.002000000000     0.722570000000    -0.0070292  
C138     C      0.598030000000     0.028000000000     0.739160000000    -0.0360346  
C139     C      0.595140000000     0.025950000000     0.769120000000    -0.0360964  
C140     C      0.573800000000     0.004300000000     0.690550000000     0.0474062  
C141     C      0.566880000000     0.976330000000     0.676740000000    -0.093444   
C142     C      0.563780000000     0.977280000000     0.646580000000     0.0678683  
C143     C      0.575980000000     0.033550000000     0.643090000000     0.0679899  
C144     C      0.579470000000     0.033500000000     0.673340000000    -0.091789   
C145     C      0.517650000000     0.006900000000     0.147300000000     0.0684343  
C146     C      0.512020000000     0.005120000000     0.176500000000    -0.0930846  
C147     C      0.477370000000     0.995730000000     0.185260000000     0.047538   
C148     C      0.448920000000     0.988620000000     0.163990000000    -0.0917428  
C149     C      0.455630000000     0.991100000000     0.134730000000     0.0684575  
C150     C      0.471570000000     0.993530000000     0.216510000000    -0.00689282 
C151     C      0.442280000000     0.965410000000     0.229760000000    -0.036173   
C152     C      0.438930000000     0.962500000000     0.259730000000    -0.0358393  
C153     C      0.464500000000     0.987890000000     0.276920000000    -0.00708683 
C154     C      0.493250000000     0.016280000000     0.263440000000    -0.0355073  
C155     C      0.496770000000     0.019030000000     0.233690000000    -0.0361392  
C156     C      0.462200000000     0.984970000000     0.308890000000     0.048234   
C157     C      0.455220000000     0.955260000000     0.325830000000    -0.0916082  
C158     C      0.457700000000     0.954580000000     0.356130000000     0.0701274  
C159     C      0.471680000000     0.011330000000     0.353120000000     0.0710644  
C160     C      0.469460000000     0.012850000000     0.322970000000    -0.0936084  
C161     C      0.551270000000     0.662710000000     0.994470000000     0.0690899  
C162     C      0.560700000000     0.696480000000     0.990010000000    -0.0938964  
C163     C      0.565890000000     0.712460000000     0.962020000000     0.0481241  
C164     C      0.562010000000     0.693950000000     0.939020000000    -0.0924108  
C165     C      0.553130000000     0.660280000000     0.944290000000     0.0680099  
C166     C      0.572460000000     0.747440000000     0.956910000000    -0.00736142 
C167     C      0.551230000000     0.755550000000     0.935550000000    -0.0358937  
C168     C      0.552550000000     0.786630000000     0.933980000000    -0.0364002  
C169     C      0.575530000000     0.810380000000     0.953430000000    -0.0077151  
C170     C      0.598850000000     0.803350000000     0.973310000000    -0.0357558  
C171     C      0.597180000000     0.772040000000     0.975160000000    -0.0358476  
C172     C      0.569780000000     0.838970000000     0.956740000000     0.0494127  
C173     C      0.535430000000     0.832270000000     0.963820000000    -0.0955474  
C174     C      0.529840000000     0.858190000000     0.969660000000     0.0726681  
C175     C      0.591050000000     0.898000000000     0.960010000000     0.0700795  
C176     C      0.597930000000     0.872230000000     0.954800000000    -0.0929861  
C177     C      0.517010000000     0.131970000000     0.042890000000     0.0723148  
C178     C      0.514290000000     0.160240000000     0.045980000000    -0.0942601  
C179     C      0.480170000000     0.158670000000     0.043660000000     0.0480562  
C180     C      0.448930000000     0.127170000000     0.041770000000    -0.0911523  
C181     C      0.452680000000     0.098800000000     0.039380000000     0.0687643  
C182     C      0.478460000000     0.190510000000     0.040040000000    -0.00699989 
C183     C      0.453920000000     0.195120000000     0.054550000000    -0.0360676  
C184     C      0.454460000000     0.226180000000     0.051310000000    -0.0361872  
C185     C      0.479200000000     0.252910000000     0.033200000000    -0.00681504 
C186     C      0.503310000000     0.247900000000     0.018620000000    -0.0362487  
C187     C      0.502790000000     0.217230000000     0.021830000000    -0.0358783  
C188     C      0.480610000000     0.286160000000     0.029020000000     0.0467741  
C189     C      0.479140000000     0.302010000000     0.052240000000    -0.0910315  
C190     C      0.484980000000     0.335000000000     0.047820000000     0.066944   
C191     C      0.492410000000     0.336320000000     0.998020000000     0.0685766  
C192     C      0.486300000000     0.303540000000     0.001590000000    -0.0926665  
C193     C      0.868790000000     0.355620000000     0.446420000000     0.0726589  
C194     C      0.841570000000     0.323050000000     0.453260000000    -0.0944527  
C195     C      0.850920000000     0.298730000000     0.465740000000     0.0482769  
C196     C      0.887850000000     0.306940000000     0.466610000000    -0.091436   
C197     C      0.914350000000     0.339620000000     0.458240000000     0.071519   
C198     C      0.822560000000     0.266130000000     0.479180000000    -0.00669378 
C199     C      0.825790000000     0.236960000000     0.481110000000    -0.0353725  
C200     C      0.798780000000     0.206640000000     0.493430000000    -0.0361026  
C201     C      0.767120000000     0.204270000000     0.503390000000    -0.00618371 
C202     C      0.764550000000     0.233660000000     0.502400000000    -0.0361008  
C203     C      0.792030000000     0.264130000000     0.490900000000    -0.0353077  
C204     C      0.735460000000     0.171020000000     0.511880000000     0.0466569  
C205     C      0.728300000000     0.142830000000     0.498320000000    -0.0920843  
C206     C      0.696130000000     0.113020000000     0.502760000000     0.0671619  
C207     C      0.677740000000     0.137030000000     0.534990000000     0.068328   
C208     C      0.710260000000     0.167390000000     0.531380000000    -0.0912439  
C209     C      0.355460000000     0.846400000000     0.472940000000     0.0712716  
C210     C      0.324020000000     0.816330000000     0.479920000000    -0.0936177  
C211     C      0.295790000000     0.816870000000     0.492700000000     0.0495256  
C212     C      0.298440000000     0.847580000000     0.496290000000    -0.0940022  
C213     C      0.330560000000     0.876960000000     0.489940000000     0.0729703  
C214     C      0.266030000000     0.785900000000     0.505800000000    -0.00738922 
C215     C      0.274280000000     0.767930000000     0.529100000000    -0.035962   
C216     C      0.246500000000     0.739270000000     0.542600000000    -0.035895   
C217     C      0.209820000000     0.727410000000     0.532590000000    -0.00717606 
C218     C      0.201620000000     0.746140000000     0.509660000000    -0.0356476  
C219     C      0.229490000000     0.775350000000     0.496600000000    -0.0363816  
C220     C      0.181040000000     0.693790000000     0.543530000000     0.0476192  
C221     C      0.189280000000     0.667630000000     0.550060000000    -0.0945152  
C222     C      0.161350000000     0.634860000000     0.553960000000     0.0700225  
C223     C      0.117130000000     0.652950000000     0.548640000000     0.0683993  
C224     C      0.144590000000     0.686330000000     0.544560000000    -0.0920911  
C225     C      0.659090000000     0.549950000000     0.434660000000     0.0679747  
C226     C      0.694220000000     0.557590000000     0.446000000000    -0.0905107  
C227     C      0.701490000000     0.531640000000     0.456940000000     0.0500603  
C228     C      0.674470000000     0.498610000000     0.453320000000    -0.0944715  
C229     C      0.639960000000     0.491950000000     0.441580000000     0.0662178  
C230     C      0.736120000000     0.538310000000     0.473470000000    -0.00750177 
C231     C      0.770060000000     0.561370000000     0.462390000000    -0.0360736  
C232     C      0.802260000000     0.563620000000     0.476400000000    -0.035846   
C233     C      0.800850000000     0.542980000000     0.501700000000    -0.00720452 
C234     C      0.767140000000     0.522240000000     0.514050000000    -0.0373741  
C235     C      0.735120000000     0.519850000000     0.500030000000    -0.0348956  
C236     C      0.832420000000     0.537760000000     0.511610000000     0.0490138  
C237     C      0.868030000000     0.564390000000     0.514960000000    -0.0926085  
C238     C      0.897540000000     0.557910000000     0.519390000000     0.0706349  
C239     C      0.856940000000     0.499740000000     0.517980000000     0.0724785  
C240     C      0.827120000000     0.505140000000     0.514510000000    -0.0947276  
C241     C      0.143150000000     0.456610000000     0.488920000000     0.0688637  
C242     C      0.175270000000     0.457780000000     0.501990000000    -0.0919482  
C243     C      0.206990000000     0.488740000000     0.504770000000     0.0484797  
C244     C      0.206080000000     0.517710000000     0.492670000000    -0.0948203  
C245     C      0.173720000000     0.515610000000     0.479800000000     0.06963    
C246     C      0.240690000000     0.491200000000     0.520720000000    -0.00738415 
C247     C      0.238690000000     0.470740000000     0.546290000000    -0.0358341  
C248     C      0.270460000000     0.473150000000     0.561190000000    -0.0366562  
C249     C      0.304930000000     0.496200000000     0.550940000000    -0.00679205 
C250     C      0.306930000000     0.517270000000     0.525840000000    -0.0359226  
C251     C      0.275250000000     0.514720000000     0.510880000000    -0.0357764  
C252     C      0.338340000000     0.495200000000     0.563490000000     0.0485874  
C253     C      0.337820000000     0.464410000000     0.568920000000    -0.09373    
C254     C      0.370530000000     0.463490000000     0.571520000000     0.0727046  
C255     C      0.404370000000     0.522650000000     0.568620000000     0.0710587  
C256     C      0.372030000000     0.524580000000     0.565430000000    -0.0925372  
C257     C      0.976030000000     0.511130000000     0.851830000000     0.0695463  
C258     C      0.975890000000     0.515470000000     0.821660000000    -0.0922451  
C259     C      0.983660000000     0.495590000000     0.806480000000     0.0484988  
C260     C      0.989800000000     0.470610000000     0.822120000000    -0.0927119  
C261     C      0.989950000000     0.467080000000     0.852230000000     0.071888   
C262     C      0.986560000000     0.501370000000     0.774630000000    -0.00447266 
C263     C      0.962100000000     0.508860000000     0.756500000000    -0.0360054  
C264     C      0.964040000000     0.512380000000     0.726390000000    -0.036157   
C265     C      0.990280000000     0.508230000000     0.714050000000    -0.00492915 
C266     C      0.015600000000     0.502160000000     0.732170000000    -0.038462   
C267     C      0.013880000000     0.498920000000     0.762090000000    -0.0382404  
C268     C      0.989600000000     0.506970000000     0.682530000000     0.0489272  
C269     C      0.990700000000     0.532890000000     0.662720000000    -0.092683   
C270     C      0.992440000000     0.531360000000     0.633140000000     0.0700719  
C271     C      0.990030000000     0.478510000000     0.642790000000     0.0704952  
C272     C      0.988720000000     0.479450000000     0.672220000000    -0.0942662  
C273     C      0.072260000000     0.484650000000     0.144950000000     0.0669998  
C274     C      0.076270000000     0.482990000000     0.175100000000    -0.0934933  
C275     C      0.071210000000     0.504710000000     0.190030000000     0.0483379  
C276     C      0.062890000000     0.528250000000     0.174250000000    -0.0937511  
C277     C      0.058380000000     0.528820000000     0.144140000000     0.069271   
C278     C      0.072760000000     0.501860000000     0.221980000000    -0.00741773 
C279     C      0.051610000000     0.470940000000     0.237340000000    -0.0361556  
C280     C      0.049650000000     0.468950000000     0.267290000000    -0.0357323  
C281     C      0.069140000000     0.497820000000     0.282450000000    -0.00718321 
C282     C      0.092050000000     0.528340000000     0.267140000000    -0.0357692  
C283     C      0.093530000000     0.530400000000     0.237190000000    -0.036347   
C284     C      0.063220000000     0.496890000000     0.313470000000     0.0485037  
C285     C      0.057660000000     0.469310000000     0.333100000000    -0.0924558  
C286     C      0.050260000000     0.468760000000     0.361770000000     0.0698187  
C287     C      0.054310000000     0.522210000000     0.352000000000     0.0699572  
C288     C      0.061420000000     0.523430000000     0.323370000000    -0.0935799  
C289     C      0.689810000000     0.102300000000     0.943640000000     0.0681105  
C290     C      0.724820000000     0.129060000000     0.938580000000    -0.0923494  
C291     C      0.730710000000     0.161990000000     0.935310000000     0.0474537  
C292     C      0.700780000000     0.167110000000     0.936130000000    -0.0935501  
C293     C      0.666500000000     0.140010000000     0.941880000000     0.0687804  
C294     C      0.768070000000     0.191250000000     0.934250000000    -0.00734569 
C295     C      0.795200000000     0.192910000000     0.955430000000    -0.036025   
C296     C      0.827730000000     0.222940000000     0.958570000000    -0.0363496  
C297     C      0.834090000000     0.251750000000     0.940280000000    -0.00744018 
C298     C      0.808290000000     0.249410000000     0.917640000000    -0.0359388  
C299     C      0.775440000000     0.219500000000     0.914790000000    -0.0363524  
C300     C      0.864070000000     0.284980000000     0.947870000000     0.0485985  
C301     C      0.889400000000     0.307500000000     0.927970000000    -0.0924162  
C302     C      0.915520000000     0.339630000000     0.935720000000     0.0691245  
C303     C      0.891180000000     0.327470000000     0.981850000000     0.0718236  
C304     C      0.865690000000     0.295160000000     0.975170000000    -0.0937547  
C305     C      0.123040000000     0.649130000000     0.060050000000     0.0679369  
C306     C      0.151040000000     0.680810000000     0.067570000000    -0.0918714  
C307     C      0.177950000000     0.701260000000     0.047990000000     0.0477136  
C308     C      0.174490000000     0.690540000000     0.020580000000    -0.0953588  
C309     C      0.146860000000     0.659080000000     0.013990000000     0.0691504  
C310     C      0.211710000000     0.732090000000     0.056030000000    -0.00731112 
C311     C      0.211010000000     0.758560000000     0.067540000000    -0.0364206  
C312     C      0.243480000000     0.788890000000     0.071350000000    -0.0361099  
C313     C      0.277110000000     0.793020000000     0.063990000000    -0.00670942 
C314     C      0.277420000000     0.765900000000     0.053350000000    -0.0358609  
C315     C      0.245400000000     0.735970000000     0.049670000000    -0.0361756  
C316     C      0.311880000000     0.825500000000     0.065520000000     0.0471384  
C317     C      0.345080000000     0.825340000000     0.071710000000    -0.0932017  
C318     C      0.377830000000     0.854290000000     0.066080000000     0.0705679  
C319     C      0.346820000000     0.885530000000     0.053070000000     0.0693083  
C320     C      0.313080000000     0.856470000000     0.057460000000    -0.0908548  
C321     C      0.638630000000     0.448480000000     0.987240000000     0.0623054  
C322     C      0.669560000000     0.447770000000     0.000860000000    -0.0932811  
C323     C      0.702550000000     0.477690000000     0.003480000000     0.0461068  
C324     C      0.704210000000     0.507410000000     0.990410000000    -0.0967577  
C325     C      0.672910000000     0.507190000000     0.977020000000     0.0626151  
C326     C      0.735070000000     0.478230000000     0.019940000000    -0.00766736 
C327     C      0.744450000000     0.453430000000     0.017290000000    -0.035798   
C328     C      0.775890000000     0.454800000000     0.031740000000    -0.036301   
C329     C      0.798720000000     0.480900000000     0.049390000000    -0.00662942 
C330     C      0.788890000000     0.505330000000     0.052570000000    -0.0366084  
C331     C      0.757390000000     0.503980000000     0.038030000000    -0.0359906  
C332     C      0.833980000000     0.483670000000     0.062120000000     0.0475498  
C333     C      0.836550000000     0.454720000000     0.071250000000    -0.0933275  
C334     C      0.870590000000     0.456370000000     0.074410000000     0.0725105  
C335     C      0.900090000000     0.515330000000     0.065490000000     0.0693022  
C336     C      0.866280000000     0.514570000000     0.061440000000    -0.0917663  
C337     C      0.368740000000     0.507850000000     0.029460000000     0.0734205  
C338     C      0.337520000000     0.510560000000     0.021290000000    -0.0939683  
C339     C      0.339380000000     0.536920000000     0.001480000000     0.0488525  
C340     C      0.374300000000     0.563270000000     0.994830000000    -0.092214   
C341     C      0.405460000000     0.560670000000     0.005050000000     0.0718255  
C342     C      0.305190000000     0.534840000000     0.986100000000    -0.00723508 
C343     C      0.303310000000     0.563460000000     0.973570000000    -0.0355799  
C344     C      0.271440000000     0.560610000000     0.958330000000    -0.0360112  
C345     C      0.239980000000     0.529120000000     0.955880000000    -0.00581693 
C346     C      0.242070000000     0.500650000000     0.968460000000    -0.0363918  
C347     C      0.274150000000     0.503400000000     0.982620000000    -0.0351886  
C348     C      0.204400000000     0.525670000000     0.942300000000     0.0467328  
C349     C      0.196110000000     0.551830000000     0.941340000000    -0.0909555  
C350     C      0.160610000000     0.546050000000     0.933800000000     0.0707309  
C351     C      0.141270000000     0.489800000000     0.926390000000     0.0682315  
C352     C      0.176820000000     0.495090000000     0.932430000000    -0.0923833  
C353     C      0.622580000000     0.652020000000     0.560910000000     0.0683486  
C354     C      0.648200000000     0.684330000000     0.568600000000    -0.0925316  
C355     C      0.673930000000     0.706820000000     0.548960000000     0.0477616  
C356     C      0.673280000000     0.696360000000     0.521990000000    -0.0943611  
C357     C      0.648250000000     0.663880000000     0.515380000000     0.067777   
C358     C      0.703300000000     0.740350000000     0.556550000000    -0.0075891  
C359     C      0.728680000000     0.743240000000     0.579690000000    -0.0361424  
C360     C      0.761100000000     0.773490000000     0.582770000000    -0.0364721  
C361     C      0.768380000000     0.801530000000     0.563060000000    -0.0071458  
C362     C      0.741600000000     0.799300000000     0.541340000000    -0.0360266  
C363     C      0.709540000000     0.768920000000     0.537940000000    -0.0364248  
C364     C      0.805600000000     0.831000000000     0.562210000000     0.047551   
C365     C      0.811330000000     0.863880000000     0.559360000000    -0.0920706  
C366     C      0.846370000000     0.890850000000     0.554620000000     0.0681491  
C367     C      0.869840000000     0.853350000000     0.555640000000     0.0704482  
C368     C      0.835630000000     0.826090000000     0.561190000000    -0.0927115  
C369     C      0.191380000000     0.105020000000     0.446410000000     0.06952    
C370     C      0.226350000000     0.131650000000     0.440810000000    -0.0927325  
C371     C      0.232850000000     0.164720000000     0.439130000000     0.0480882  
C372     C      0.203740000000     0.170220000000     0.442480000000    -0.0932222  
C373     C      0.169670000000     0.143280000000     0.448880000000     0.0702683  
C374     C      0.270130000000     0.193810000000     0.436910000000    -0.00735689 
C375     C      0.276530000000     0.221700000000     0.417270000000    -0.0364732  
C376     C      0.309200000000     0.251870000000     0.419420000000    -0.0359497  
C377     C      0.335750000000     0.254840000000     0.441580000000    -0.00779782 
C378     C      0.330370000000     0.226350000000     0.459980000000    -0.036201   
C379     C      0.298010000000     0.196010000000     0.457480000000    -0.0359125  
C380     C      0.365360000000     0.288430000000     0.448690000000     0.0488833  
C381     C      0.389990000000     0.311000000000     0.428370000000    -0.0929589  
C382     C      0.415540000000     0.343520000000     0.435590000000     0.0694263  
C383     C      0.391950000000     0.331640000000     0.481990000000     0.0719764  
C384     C      0.367070000000     0.298960000000     0.475850000000    -0.0950649  
C385     C      0.848880000000     0.974860000000     0.441230000000     0.0696484  
C386     C      0.812900000000     0.968090000000     0.434260000000    -0.0935586  
C387     C      0.792230000000     0.968810000000     0.455360000000     0.0486152  
C388     C      0.808180000000     0.975880000000     0.483320000000    -0.0938014  
C389     C      0.844010000000     0.982080000000     0.489660000000     0.0702151  
C390     C      0.754820000000     0.963850000000     0.448040000000    -0.0080955  
C391     C      0.745100000000     0.986420000000     0.456630000000    -0.0349999  
C392     C      0.710400000000     0.982650000000     0.449380000000    -0.038044   
C393     C      0.684390000000     0.956060000000     0.433580000000    -0.00665553 
C394     C      0.693690000000     0.933000000000     0.425390000000    -0.0371123  
C395     C      0.728820000000     0.937080000000     0.432300000000    -0.0357944  
C396     C      0.647990000000     0.953260000000     0.425930000000     0.0445311  
C397     C      0.645700000000     0.981550000000     0.413880000000    -0.0926052  
C398     C      0.612700000000     0.981680000000     0.412910000000     0.069187   
C399     C      0.582920000000     0.925170000000     0.432300000000     0.0604427  
C400     C      0.615790000000     0.924120000000     0.433610000000    -0.0954409  
C401     C      0.190680000000     0.024910000000     0.560120000000     0.069822   
C402     C      0.227720000000     0.035290000000     0.566640000000    -0.0920617  
C403     C      0.252190000000     0.047300000000     0.544430000000     0.047299   
C404     C      0.237980000000     0.048160000000     0.515850000000    -0.0922295  
C405     C      0.200650000000     0.036460000000     0.510050000000     0.0707938  
C406     C      0.291750000000     0.057320000000     0.550850000000    -0.00682325 
C407     C      0.309580000000     0.068910000000     0.577790000000    -0.0357728  
C408     C      0.345230000000     0.074470000000     0.584770000000    -0.0368871  
C409     C      0.364260000000     0.069790000000     0.564610000000    -0.00771883 
C410     C      0.347540000000     0.060190000000     0.537230000000    -0.0355404  
C411     C      0.311680000000     0.053670000000     0.530520000000    -0.035994   
C412     C      0.398140000000     0.068190000000     0.573220000000     0.0468687  
C413     C      0.395360000000     0.039550000000     0.589510000000    -0.0935135  
C414     C      0.422650000000     0.030990000000     0.588820000000     0.0701372  
C415     C      0.458440000000     0.081570000000     0.560850000000     0.0657785  
C416     C      0.430820000000     0.090320000000     0.560030000000    -0.0940299  
C417     C      0.045380000000     0.659820000000     0.445400000000     0.0672463  
C418     C      0.051230000000     0.692750000000     0.440980000000    -0.0920115  
C419     C      0.048530000000     0.708160000000     0.463950000000     0.0471756  
C420     C      0.041270000000     0.690350000000     0.491180000000    -0.0942294  
C421     C      0.035420000000     0.657640000000     0.494800000000     0.0692635  
C422     C      0.050610000000     0.741610000000     0.459550000000    -0.00749626 
C423     C      0.077130000000     0.768480000000     0.442750000000    -0.0364842  
C424     C      0.078440000000     0.799830000000     0.439260000000    -0.0363933  
C425     C      0.052880000000     0.804560000000     0.452180000000    -0.00751457 
C426     C      0.026660000000     0.777650000000     0.469040000000    -0.0363525  
C427     C      0.025440000000     0.746690000000     0.472560000000    -0.0361147  
C428     C      0.052460000000     0.836930000000     0.448560000000     0.0480881  
C429     C      0.084130000000     0.867650000000     0.452550000000    -0.0919249  
C430     C      0.081090000000     0.896250000000     0.455390000000     0.0675279  
C431     C      0.016870000000     0.865030000000     0.447970000000     0.0692078  
C432     C      0.018940000000     0.836560000000     0.444380000000    -0.0959214  
C433     C      0.017110000000     0.132840000000     0.548980000000     0.0692787  
C434     C      0.014080000000     0.161010000000     0.551720000000    -0.0956807  
C435     C      0.980090000000     0.159690000000     0.547230000000     0.0499286  
C436     C      0.948950000000     0.128360000000     0.544070000000    -0.0916051  
C437     C      0.952960000000     0.100020000000     0.542340000000     0.0697273  
C438     C      0.978710000000     0.191660000000     0.542540000000    -0.00480278 
C439     C      0.952190000000     0.196020000000     0.554340000000    -0.0363168  
C440     C      0.952810000000     0.227090000000     0.550030000000    -0.0366404  
C441     C      0.979710000000     0.254100000000     0.533580000000    -0.00486946 
C442     C      0.005820000000     0.249340000000     0.521680000000    -0.0384941  
C443     C      0.005140000000     0.218630000000     0.525870000000    -0.0381331  
C444     C      0.981420000000     0.287430000000     0.528600000000     0.0472196  
C445     C      0.975990000000     0.302190000000     0.550750000000    -0.0921317  
C446     C      0.981620000000     0.335050000000     0.546030000000     0.0676466  
C447     C      0.996990000000     0.338580000000     0.497930000000     0.0725318  
C448     C      0.991160000000     0.305880000000     0.501770000000    -0.0952621  
C449     C      0.976420000000     0.012090000000     0.854200000000     0.0691876  
C450     C      0.972580000000     0.012640000000     0.824120000000    -0.0942107  
C451     C      0.964820000000     0.984300000000     0.810570000000     0.0489113  
C452     C      0.958990000000     0.955140000000     0.827850000000    -0.0927333  
C453     C      0.963250000000     0.955490000000     0.858000000000     0.0694844  
C454     C      0.966080000000     0.986220000000     0.778710000000    -0.00786353 
C455     C      0.939380000000     0.960630000000     0.762300000000    -0.0359692  
C456     C      0.942180000000     0.962160000000     0.732430000000    -0.0352678  
C457     C      0.972070000000     0.989000000000     0.718690000000    -0.00901371 
C458     C      0.998360000000     0.014780000000     0.735050000000    -0.0332003  
C459     C      0.995320000000     0.013480000000     0.764680000000    -0.0337252  
C460     C      0.977280000000     0.989540000000     0.687730000000     0.0523758  
C461     C      0.949550000000     0.985050000000     0.666420000000    -0.0941875  
C462     C      0.956010000000     0.986890000000     0.637260000000     0.0707162  
C463     C      0.016090000000     0.996250000000     0.650210000000     0.0680438  
C464     C      0.010750000000     0.995110000000     0.679330000000    -0.0978761  
C465     C      0.018970000000     0.993760000000     0.352460000000     0.0663694  
C466     C      0.024030000000     0.994090000000     0.323400000000    -0.0933628  
C467     C      0.057620000000     0.999990000000     0.314970000000     0.0480733  
C468     C      0.085670000000     0.005420000000     0.336220000000    -0.0928239  
C469     C      0.079530000000     0.004470000000     0.365280000000     0.0694231  
C470     C      0.062870000000     0.000250000000     0.284050000000    -0.00721269 
C471     C      0.036220000000     0.974790000000     0.267560000000    -0.0363887  
C472     C      0.039570000000     0.975860000000     0.238010000000    -0.0357087  
C473     C      0.069540000000     0.002510000000     0.224190000000    -0.00768631 
C474     C      0.096560000000     0.027760000000     0.240740000000    -0.0359162  
C475     C      0.093380000000     0.026500000000     0.270490000000    -0.0362183  
C476     C      0.071420000000     0.004190000000     0.192430000000     0.0492371  
C477     C      0.079520000000     0.033800000000     0.175020000000    -0.0930753  
C478     C      0.076510000000     0.033630000000     0.144870000000     0.0708872  
C479     C      0.059830000000     0.976110000000     0.148970000000     0.0714741  
C480     C      0.062440000000     0.975400000000     0.179050000000    -0.0953642  
C481     C      0.628390000000     0.654900000000     0.044610000000     0.0690986  
C482     C      0.654840000000     0.688180000000     0.037980000000    -0.0928112  
C483     C      0.690110000000     0.695360000000     0.032620000000     0.0485325  
C484     C      0.699340000000     0.669870000000     0.037620000000    -0.0957692  
C485     C      0.672450000000     0.637190000000     0.044250000000     0.0702033  
C486     C      0.716430000000     0.728140000000     0.019100000000    -0.00692578 
C487     C      0.728060000000     0.757620000000     0.032360000000    -0.0369223  
C488     C      0.755520000000     0.787960000000     0.020500000000    -0.0350171  
C489     C      0.771350000000     0.789450000000     0.994830000000    -0.00761598 
C490     C      0.758250000000     0.759950000000     0.980980000000    -0.0356364  
C491     C      0.731280000000     0.729620000000     0.993100000000    -0.036546   
C492     C      0.802980000000     0.821150000000     0.983890000000     0.0479706  
C493     C      0.805970000000     0.852040000000     0.987760000000    -0.0932133  
C494     C      0.838680000000     0.881330000000     0.982910000000     0.0711776  
C495     C      0.864180000000     0.851070000000     0.966430000000     0.0688891  
C496     C      0.832010000000     0.821030000000     0.971750000000    -0.0921821  
C497     C      0.368000000000     0.354700000000     0.962320000000     0.0711456  
C498     C      0.342810000000     0.321750000000     0.970120000000    -0.0964744  
C499     C      0.353310000000     0.297120000000     0.972960000000     0.0502891  
C500     C      0.387920000000     0.305480000000     0.964650000000    -0.0934469  
C501     C      0.412680000000     0.339050000000     0.956870000000     0.0720373  
C502     C      0.328600000000     0.263670000000     0.986440000000    -0.00825873 
C503     C      0.314710000000     0.260880000000     0.013280000000    -0.0348649  
C504     C      0.288000000000     0.230060000000     0.024870000000    -0.0365244  
C505     C      0.274300000000     0.201420000000     0.009690000000    -0.00610686 
C506     C      0.289480000000     0.204110000000     0.983340000000    -0.0362186  
C507     C      0.316590000000     0.234930000000     0.971940000000    -0.0355285  
C508     C      0.242440000000     0.169500000000     0.019880000000     0.0485815  
C509     C      0.213520000000     0.169350000000     0.032410000000    -0.0920272  
C510     C      0.181060000000     0.139350000000     0.036920000000     0.0711148  
C511     C      0.206130000000     0.109580000000     0.018900000000     0.0727879  
C512     C      0.239070000000     0.138820000000     0.014730000000    -0.0933544  
C513     C      0.954010000000     0.066620000000     0.068630000000     0.0624032  
C514     C      0.923450000000     0.071030000000     0.069040000000    -0.0940617  
C515     C      0.889780000000     0.043630000000     0.076650000000     0.0454219  
C516     C      0.888440000000     0.012940000000     0.085800000000    -0.0926679  
C517     C      0.919200000000     0.009370000000     0.084770000000     0.0682004  
C518     C      0.855330000000     0.045520000000     0.072260000000    -0.00653103 
C519     C      0.848110000000     0.061320000000     0.046570000000    -0.0364237  
C520     C      0.813410000000     0.058130000000     0.039960000000    -0.0357859  
C521     C      0.785140000000     0.039100000000     0.058900000000    -0.00699122 
C522     C      0.792960000000     0.024810000000     0.085290000000    -0.0355052  
C523     C      0.827620000000     0.028010000000     0.091890000000    -0.0359713  
C524     C      0.747240000000     0.032690000000     0.050570000000     0.0478761  
C525     C      0.732610000000     0.026140000000     0.022180000000    -0.0927148  
C526     C      0.696570000000     0.018910000000     0.014900000000     0.0702054  
C527     C      0.688920000000     0.024480000000     0.063090000000     0.0687964  
C528     C      0.724850000000     0.031820000000     0.071080000000    -0.092341   
C529     C      0.336030000000     0.960760000000     0.985560000000     0.0682202  
C530     C      0.298880000000     0.949370000000     0.978430000000    -0.0919489  
C531     C      0.283520000000     0.936810000000     0.951480000000     0.046968   
C532     C      0.306280000000     0.935650000000     0.932460000000    -0.0919168  
C533     C      0.343270000000     0.947490000000     0.940150000000     0.0674084  
C534     C      0.244690000000     0.927040000000     0.942550000000    -0.00679666 
C535     C      0.217500000000     0.912000000000     0.962820000000    -0.0359495  
C536     C      0.182350000000     0.907400000000     0.955280000000    -0.035984   
C537     C      0.173560000000     0.917690000000     0.927280000000    -0.00673998 
C538     C      0.199810000000     0.930080000000     0.906410000000    -0.0363108  
C539     C      0.234950000000     0.934850000000     0.913960000000    -0.0357252  
C540     C      0.140580000000     0.921950000000     0.921810000000     0.0469518  
C541     C      0.144560000000     0.952630000000     0.909010000000    -0.0926435  
C542     C      0.117910000000     0.961350000000     0.911780000000     0.0717181  
C543     C      0.080230000000     0.908010000000     0.935050000000     0.0672467  
C544     C      0.107030000000     0.898650000000     0.933430000000    -0.0922516  
C545     C      0.984440000000     0.828740000000     0.032310000000     0.0708001  
C546     C      0.975900000000     0.795290000000     0.032800000000    -0.094739   
C547     C      0.959090000000     0.777680000000     0.008260000000     0.0497615  
C548     C      0.949890000000     0.793820000000     0.984070000000    -0.0955693  
C549     C      0.958910000000     0.827190000000     0.984270000000     0.071253   
C550     C      0.953550000000     0.743510000000     0.007040000000    -0.00746011 
C551     C      0.941520000000     0.719760000000     0.030980000000    -0.0362741  
C552     C      0.939390000000     0.688590000000     0.030390000000    -0.0364721  
C553     C      0.949360000000     0.680670000000     0.005890000000    -0.00701367 
C554     C      0.960120000000     0.704020000000     0.981620000000    -0.0360656  
C555     C      0.962190000000     0.735070000000     0.982190000000    -0.0359518  
C556     C      0.952020000000     0.649710000000     0.006420000000     0.0489112  
C557     C      0.967500000000     0.639430000000     0.030850000000    -0.0939585  
C558     C      0.974830000000     0.613230000000     0.029790000000     0.0703875  
C559     C      0.950110000000     0.605860000000     0.981420000000     0.0691014  
C560     C      0.942370000000     0.631990000000     0.981760000000    -0.0939198  
C561     C      0.060680000000     0.372070000000     0.969530000000     0.0711454  
C562     C      0.069110000000     0.346510000000     0.968650000000    -0.0939629  
C563     C      0.085300000000     0.337070000000     0.993140000000     0.0484568  
C564     C      0.093980000000     0.354610000000     0.017780000000    -0.0936507  
C565     C      0.085090000000     0.380000000000     0.017950000000     0.0701519  
C566     C      0.090230000000     0.307320000000     0.993710000000    -0.0079468  
C567     C      0.101810000000     0.300660000000     0.969390000000    -0.0364901  
C568     C      0.102430000000     0.270660000000     0.969020000000    -0.036274   
C569     C      0.091540000000     0.246840000000     0.992980000000    -0.00817055 
C570     C      0.081260000000     0.254100000000     0.017650000000    -0.0354109  
C571     C      0.080630000000     0.283990000000     0.018020000000    -0.0355111  
C572     C      0.088120000000     0.213440000000     0.991790000000     0.048878   
C573     C      0.072340000000     0.195770000000     0.967160000000    -0.0941876  
C574     C      0.064440000000     0.162500000000     0.967930000000     0.0705908  
C575     C      0.089100000000     0.164470000000     0.016290000000     0.0719958  
C576     C      0.097560000000     0.197740000000     0.016190000000    -0.0945439  
H1       H      0.047760000000     0.005970000000     0.933460000000     0.198338   
H2       H      0.990620000000     0.049680000000     0.005710000000     0.203197   
H3       H      0.955940000000     0.917810000000     0.018770000000     0.195289   
H4       H      0.095110000000     0.010510000000     0.047580000000     0.196773   
H5       H      0.947820000000     0.033390000000     0.936780000000     0.139794   
H6       H      0.919340000000     0.023470000000     0.013730000000     0.197408   
H7       H      0.904590000000     0.930530000000     0.057700000000     0.131476   
H8       H      0.996650000000     0.898200000000     0.095700000000     0.194385   
H9       H      0.067310000000     0.922020000000     0.078510000000     0.13824    
H10      H      0.127410000000     0.969650000000     0.999320000000     0.206303   
H11      H      0.128170000000     0.064440000000     0.942220000000     0.128612   
H12      H      0.076710000000     0.078140000000     0.914510000000     0.185365   
H13      H      0.963030000000     0.906390000000     0.082570000000     0.186759   
H14      H      0.146650000000     0.999080000000     0.022880000000     0.198727   
H15      H      0.047080000000     0.092670000000     0.906650000000     0.20073    
H16      H      0.906300000000     0.005200000000     0.982590000000     0.196703   
H17      H      0.930520000000     0.945380000000     0.487660000000     0.196054   
H18      H      0.052330000000     0.047900000000     0.440250000000     0.191333   
H19      H      0.033650000000     0.046270000000     0.554330000000     0.193049   
H20      H      0.061990000000     0.952130000000     0.521920000000     0.19874    
H21      H      0.002240000000     0.054030000000     0.408290000000     0.130788   
H22      H      0.021750000000     0.107610000000     0.458610000000     0.205857   
H23      H      0.107840000000     0.105310000000     0.536810000000     0.128033   
H24      H      0.103950000000     0.063160000000     0.583500000000     0.184939   
H25      H      0.037400000000     0.940360000000     0.591390000000     0.141243   
H26      H      0.017380000000     0.887010000000     0.539000000000     0.197033   
H27      H      0.928000000000     0.887840000000     0.468770000000     0.125477   
H28      H      0.927700000000     0.930980000000     0.423480000000     0.187128   
H29      H      0.112190000000     0.034050000000     0.602620000000     0.201184   
H30      H      0.988680000000     0.886950000000     0.561130000000     0.201412   
H31      H      0.925750000000     0.960830000000     0.400080000000     0.201271   
H32      H      0.057700000000     0.113210000000     0.441850000000     0.19455    
H33      H      0.995380000000     0.464390000000     0.067450000000     0.196113   
H34      H      0.945400000000     0.449480000000     0.954370000000     0.193094   
H35      H      0.041830000000     0.574880000000     0.985450000000     0.195997   
H36      H      0.090810000000     0.484950000000     0.987530000000     0.201841   
H37      H      0.886770000000     0.441150000000     0.992160000000     0.13529    
H38      H      0.903880000000     0.500580000000     0.957630000000     0.19854    
H39      H      0.025290000000     0.580910000000     0.924760000000     0.126338   
H40      H      0.110620000000     0.603100000000     0.935860000000     0.19222    
H41      H      0.161570000000     0.572280000000     0.000610000000     0.13908    
H42      H      0.131910000000     0.480970000000     0.039670000000     0.201721   
H43      H      0.011930000000     0.411500000000     0.077960000000     0.13004    
H44      H      0.930500000000     0.401630000000     0.073830000000     0.195906   
H45      H      0.147850000000     0.610100000000     0.957210000000     0.192963   
H46      H      0.131200000000     0.503150000000     0.065150000000     0.205275   
H47      H      0.938690000000     0.378780000000     0.053580000000     0.200157   
H48      H      0.908620000000     0.484660000000     0.929070000000     0.195147   
H49      H      0.949510000000     0.476510000000     0.541410000000     0.193107   
H50      H      0.975980000000     0.477090000000     0.429150000000     0.195584   
H51      H      0.074480000000     0.579710000000     0.491330000000     0.19878    
H52      H      0.061540000000     0.455760000000     0.521550000000     0.206857   
H53      H      0.895700000000     0.461660000000     0.429320000000     0.136832   
H54      H      0.973360000000     0.558120000000     0.412840000000     0.208553   
H55      H      0.102940000000     0.588660000000     0.435440000000     0.13077    
H56      H      0.161960000000     0.583440000000     0.493660000000     0.192416   
H57      H      0.118930000000     0.513300000000     0.566540000000     0.135549   
H58      H      0.057160000000     0.461900000000     0.594910000000     0.198839   
H59      H      0.927010000000     0.404660000000     0.552980000000     0.129348   
H60      H      0.860020000000     0.425850000000     0.482360000000     0.19669    
H61      H      0.171100000000     0.563100000000     0.522850000000     0.198955   
H62      H      0.040760000000     0.423010000000     0.585370000000     0.20053    
H63      H      0.877800000000     0.416030000000     0.513460000000     0.18879    
H64      H      0.983360000000     0.537840000000     0.391070000000     0.200545   
H65      H      0.506120000000     0.943300000000     0.950910000000     0.193764   
H66      H      0.487920000000     0.951470000000     0.062900000000     0.194443   
H67      H      0.606350000000     0.052320000000     0.010910000000     0.197006   
H68      H      0.471980000000     0.037740000000     0.974150000000     0.199021   
H69      H      0.495390000000     0.899300000000     0.067260000000     0.131193   
H70      H      0.566740000000     0.946080000000     0.083020000000     0.201341   
H71      H      0.601390000000     0.071700000000     0.066720000000     0.127993   
H72      H      0.609280000000     0.119390000000     0.021910000000     0.187826   
H73      H      0.543310000000     0.093830000000     0.932050000000     0.141467   
H74      H      0.450500000000     0.033760000000     0.916110000000     0.197726   
H75      H      0.438160000000     0.923850000000     0.925460000000     0.125633   
H76      H      0.425140000000     0.881680000000     0.972500000000     0.191616   
H77      H      0.594120000000     0.138550000000     0.995620000000     0.200646   
H78      H      0.487920000000     0.042360000000     0.899780000000     0.200993   
H79      H      0.443110000000     0.858420000000     0.989490000000     0.201766   
H80      H      0.565210000000     0.967340000000     0.108930000000     0.201784   
H81      H      0.438570000000     0.976120000000     0.456890000000     0.195263   
H82      H      0.494170000000     0.983310000000     0.568950000000     0.20106    
H83      H      0.546500000000     0.939430000000     0.492900000000     0.201775   
H84      H      0.578810000000     0.070780000000     0.479780000000     0.196012   
H85      H      0.414940000000     0.924630000000     0.564290000000     0.128511   
H86      H      0.467710000000     0.908330000000     0.588010000000     0.186942   
H87      H      0.594600000000     0.958840000000     0.561330000000     0.140737   
H88      H      0.616450000000     0.965660000000     0.483290000000     0.198027   
H89      H      0.628750000000     0.056850000000     0.437820000000     0.131675   
H90      H      0.566150000000     0.082230000000     0.416120000000     0.186714   
H91      H      0.452680000000     0.056090000000     0.460030000000     0.143638   
H92      H      0.390160000000     0.988880000000     0.484450000000     0.19618    
H93      H      0.633700000000     0.987340000000     0.512510000000     0.197981   
H94      H      0.530920000000     0.089090000000     0.405800000000     0.200733   
H95      H      0.408550000000     0.016440000000     0.509640000000     0.200761   
H96      H      0.501180000000     0.898440000000     0.595280000000     0.200976   
H97      H      0.459200000000     0.480010000000     0.046490000000     0.198145   
H98      H      0.474170000000     0.475850000000     0.931990000000     0.19155    
H99      H      0.580250000000     0.579380000000     0.989040000000     0.198973   
H100     H      0.565050000000     0.454870000000     0.019850000000     0.1985     
H101     H      0.404880000000     0.467560000000     0.931840000000     0.131164   
H102     H      0.475840000000     0.559720000000     0.914700000000     0.207423   
H103     H      0.603030000000     0.586660000000     0.931600000000     0.130052   
H104     H      0.665930000000     0.579810000000     0.986140000000     0.191675   
H105     H      0.636150000000     0.495060000000     0.035480000000     0.134334   
H106     H      0.561290000000     0.460970000000     0.098630000000     0.206591   
H107     H      0.435350000000     0.409220000000     0.060650000000     0.129115   
H108     H      0.375800000000     0.418620000000     0.012800000000     0.19292    
H109     H      0.676600000000     0.561550000000     0.016090000000     0.196182   
H110     H      0.560000000000     0.432420000000     0.078910000000     0.198984   
H111     H      0.362840000000     0.434780000000     0.982630000000     0.197019   
H112     H      0.479000000000     0.533880000000     0.894350000000     0.198192   
H113     H      0.494500000000     0.468020000000     0.566000000000     0.193073   
H114     H      0.445420000000     0.455670000000     0.452580000000     0.199902   
H115     H      0.543720000000     0.580030000000     0.485600000000     0.196977   
H116     H      0.589840000000     0.487980000000     0.486500000000     0.199998   
H117     H      0.373650000000     0.410340000000     0.509880000000     0.142788   
H118     H      0.403380000000     0.493910000000     0.456760000000     0.203969   
H119     H      0.531020000000     0.586170000000     0.424490000000     0.129629   
H120     H      0.616500000000     0.607670000000     0.436060000000     0.192552   
H121     H      0.661070000000     0.573070000000     0.504080000000     0.139356   
H122     H      0.630670000000     0.484230000000     0.536840000000     0.199935   
H123     H      0.511140000000     0.405540000000     0.566010000000     0.133889   
H124     H      0.448090000000     0.404920000000     0.570250000000     0.185033   
H125     H      0.652300000000     0.612700000000     0.458550000000     0.193779   
H126     H      0.629620000000     0.502860000000     0.565010000000     0.204603   
H127     H      0.407790000000     0.383990000000     0.552270000000     0.194497   
H128     H      0.415020000000     0.510980000000     0.423110000000     0.203098   
H129     H      0.573770000000     0.467710000000     0.632920000000     0.0270294  
H130     H      0.579620000000     0.463690000000     0.685300000000     0.0523608  
H131     H      0.557110000000     0.545370000000     0.685340000000     0.0522209  
H132     H      0.550740000000     0.548600000000     0.632890000000     0.0248108  
H133     H      0.531360000000     0.447150000000     0.724260000000     0.0372926  
H134     H      0.526670000000     0.442370000000     0.776580000000     0.0364402  
H135     H      0.604450000000     0.547680000000     0.778660000000     0.0373508  
H136     H      0.607780000000     0.552500000000     0.726320000000     0.037342   
H137     H      0.553980000000     0.444660000000     0.825410000000     0.0517293  
H138     H      0.541320000000     0.443290000000     0.875440000000     0.0250936  
H139     H      0.547600000000     0.539510000000     0.857590000000     0.0254056  
H140     H      0.558970000000     0.541070000000     0.808210000000     0.0519583  
H141     H      0.500070000000     0.554690000000     0.118550000000     0.0251304  
H142     H      0.488790000000     0.554270000000     0.168770000000     0.0520066  
H143     H      0.489620000000     0.460510000000     0.187720000000     0.052312   
H144     H      0.499970000000     0.461200000000     0.138150000000     0.0247117  
H145     H      0.518300000000     0.558340000000     0.217910000000     0.0374188  
H146     H      0.513380000000     0.554020000000     0.270200000000     0.0379645  
H147     H      0.437710000000     0.448380000000     0.268680000000     0.0370135  
H148     H      0.441810000000     0.452720000000     0.216490000000     0.0371669  
H149     H      0.468010000000     0.539240000000     0.309370000000     0.0523537  
H150     H      0.472590000000     0.534670000000     0.361810000000     0.0250108  
H151     H      0.489770000000     0.450290000000     0.362230000000     0.0259922  
H152     H      0.484990000000     0.454230000000     0.309860000000     0.0529297  
H153     H      0.438330000000     0.593690000000     0.463790000000     0.0258573  
H154     H      0.421390000000     0.636540000000     0.465760000000     0.0514968  
H155     H      0.472630000000     0.654290000000     0.551740000000     0.0517973  
H156     H      0.488340000000     0.610910000000     0.549490000000     0.0261859  
H157     H      0.457060000000     0.696830000000     0.464270000000     0.0374629  
H158     H      0.457630000000     0.749550000000     0.465230000000     0.037325   
H159     H      0.426070000000     0.722980000000     0.553780000000     0.0357375  
H160     H      0.425400000000     0.669700000000     0.552790000000     0.0356202  
H161     H      0.421260000000     0.776290000000     0.468260000000     0.051637   
H162     H      0.437510000000     0.834430000000     0.467260000000     0.0261777  
H163     H      0.488920000000     0.839890000000     0.552390000000     0.0223245  
H164     H      0.473770000000     0.781760000000     0.553670000000     0.0513856  
H165     H      0.584620000000     0.150720000000     0.535180000000     0.0263589  
H166     H      0.598030000000     0.208150000000     0.534360000000     0.0516833  
H167     H      0.547050000000     0.201790000000     0.448320000000     0.0511292  
H168     H      0.534420000000     0.144400000000     0.449490000000     0.0203411  
H169     H      0.559590000000     0.234160000000     0.535650000000     0.0370429  
H170     H      0.561200000000     0.287570000000     0.535740000000     0.0373988  
H171     H      0.598130000000     0.314730000000     0.448690000000     0.0361535  
H172     H      0.596190000000     0.260810000000     0.448550000000     0.0359384  
H173     H      0.599660000000     0.347460000000     0.535210000000     0.0513242  
H174     H      0.587800000000     0.393700000000     0.535680000000     0.0242992  
H175     H      0.542550000000     0.380020000000     0.448420000000     0.0275698  
H176     H      0.553180000000     0.333220000000     0.447630000000     0.0523246  
H177     H      0.605000000000     0.007610000000     0.880410000000     0.0262991  
H178     H      0.615920000000     0.010290000000     0.829590000000     0.0521703  
H179     H      0.503610000000     0.983520000000     0.806880000000     0.0521064  
H180     H      0.493540000000     0.981340000000     0.857130000000     0.0268043  
H181     H      0.518310000000     0.950180000000     0.776450000000     0.0372935  
H182     H      0.523470000000     0.953530000000     0.724520000000     0.0365778  
H183     H      0.620280000000     0.049930000000     0.728960000000     0.0371758  
H184     H      0.614890000000     0.046560000000     0.781320000000     0.037547   
H185     H      0.563090000000     0.953460000000     0.689190000000     0.0507596  
H186     H      0.557540000000     0.954630000000     0.637060000000     0.0209072  
H187     H      0.579310000000     0.056310000000     0.630660000000     0.0251814  
H188     H      0.584910000000     0.055720000000     0.683130000000     0.0519628  
H189     H      0.545030000000     0.014060000000     0.141850000000     0.0237763  
H190     H      0.534730000000     0.010560000000     0.192220000000     0.0518302  
H191     H      0.421740000000     0.981480000000     0.169890000000     0.0520687  
H192     H      0.432870000000     0.985300000000     0.118980000000     0.0259976  
H193     H      0.422570000000     0.945260000000     0.217090000000     0.0372292  
H194     H      0.416360000000     0.940410000000     0.269450000000     0.037003   
H195     H      0.513680000000     0.036150000000     0.276030000000     0.0370444  
H196     H      0.519500000000     0.041100000000     0.224110000000     0.0376131  
H197     H      0.449460000000     0.933060000000     0.315820000000     0.0523212  
H198     H      0.453360000000     0.931440000000     0.368400000000     0.0261991  
H199     H      0.478170000000     0.033940000000     0.362820000000     0.0227021  
H200     H      0.474150000000     0.036100000000     0.310750000000     0.0512885  
H201     H      0.547100000000     0.651430000000     0.016520000000     0.0266917  
H202     H      0.562810000000     0.709710000000     0.008360000000     0.0520682  
H203     H      0.565780000000     0.705410000000     0.917030000000     0.0519404  
H204     H      0.550460000000     0.646970000000     0.925820000000     0.0259632  
H205     H      0.531790000000     0.737090000000     0.921310000000     0.036765   
H206     H      0.534110000000     0.791440000000     0.918620000000     0.0371797  
H207     H      0.616470000000     0.821140000000     0.988740000000     0.0383198  
H208     H      0.614120000000     0.766560000000     0.991640000000     0.0367866  
H209     H      0.513090000000     0.806840000000     0.965710000000     0.052538   
H210     H      0.502660000000     0.851390000000     0.975380000000     0.018495   
H211     H      0.613380000000     0.923470000000     0.958560000000     0.0250756  
H212     H      0.624940000000     0.878190000000     0.949440000000     0.0527255  
H213     H      0.544250000000     0.134960000000     0.043570000000     0.0218846  
H214     H      0.539120000000     0.183720000000     0.048720000000     0.0513686  
H215     H      0.421950000000     0.124790000000     0.040300000000     0.0515088  
H216     H      0.428160000000     0.075200000000     0.036170000000     0.0231485  
H217     H      0.434850000000     0.175000000000     0.068720000000     0.0371831  
H218     H      0.435370000000     0.229190000000     0.062720000000     0.0374366  
H219     H      0.523130000000     0.267920000000     0.004850000000     0.0368061  
H220     H      0.521670000000     0.214480000000     0.009910000000     0.0371458  
H221     H      0.474870000000     0.289530000000     0.073850000000     0.0513915  
H222     H      0.484370000000     0.346600000000     0.066430000000     0.025165   
H223     H      0.497550000000     0.348670000000     0.976360000000     0.026473   
H224     H      0.486750000000     0.292090000000     0.982830000000     0.050381   
H225     H      0.860480000000     0.374300000000     0.439000000000     0.0148787  
H226     H      0.813430000000     0.317610000000     0.450090000000     0.0499508  
H227     H      0.896820000000     0.289160000000     0.475510000000     0.0529669  
H228     H      0.942650000000     0.345500000000     0.461050000000     0.0284062  
H229     H      0.848720000000     0.237140000000     0.472560000000     0.0364006  
H230     H      0.802550000000     0.184920000000     0.494550000000     0.0362795  
H231     H      0.740740000000     0.233180000000     0.509570000000     0.0362599  
H232     H      0.788960000000     0.286080000000     0.491110000000     0.0354626  
H233     H      0.746320000000     0.143920000000     0.482910000000     0.0512405  
H234     H      0.691870000000     0.092420000000     0.490990000000     0.0287863  
H235     H      0.658240000000     0.135720000000     0.549120000000     0.0250932  
H236     H      0.714970000000     0.188070000000     0.543160000000     0.0506291  
H237     H      0.377640000000     0.845010000000     0.464590000000     0.0256133  
H238     H      0.322500000000     0.792780000000     0.476680000000     0.0527563  
H239     H      0.276890000000     0.848800000000     0.505880000000     0.0540192  
H240     H      0.332420000000     0.900270000000     0.494560000000     0.0224003  
H241     H      0.302310000000     0.776290000000     0.537050000000     0.0390805  
H242     H      0.253910000000     0.726130000000     0.560630000000     0.0359203  
H243     H      0.173850000000     0.737650000000     0.501030000000     0.0376035  
H244     H      0.222620000000     0.789260000000     0.478890000000     0.0374717  
H245     H      0.216860000000     0.671810000000     0.549850000000     0.0497702  
H246     H      0.168990000000     0.615310000000     0.557210000000     0.0189234  
H247     H      0.089080000000     0.647950000000     0.547050000000     0.0255169  
H248     H      0.137050000000     0.705890000000     0.540660000000     0.0515246  
H249     H      0.653810000000     0.570530000000     0.427470000000     0.0147745  
H250     H      0.714770000000     0.583490000000     0.447740000000     0.0486529  
H251     H      0.679570000000     0.477900000000     0.460550000000     0.0517189  
H252     H      0.619370000000     0.465910000000     0.440560000000     0.0244134  
H253     H      0.771520000000     0.576050000000     0.442050000000     0.0369221  
H254     H      0.827860000000     0.579600000000     0.466290000000     0.0381711  
H255     H      0.765330000000     0.506320000000     0.533680000000     0.0364165  
H256     H      0.709330000000     0.502550000000     0.509420000000     0.0350356  
H257     H      0.873070000000     0.589980000000     0.513060000000     0.0520798  
H258     H      0.924890000000     0.579040000000     0.520460000000     0.0257071  
H259     H      0.851530000000     0.474060000000     0.518730000000     0.0186627  
H260     H      0.800110000000     0.483820000000     0.512100000000     0.0513458  
H261     H      0.118800000000     0.432390000000     0.488240000000     0.0233515  
H262     H      0.175020000000     0.434640000000     0.510320000000     0.0512975  
H263     H      0.229830000000     0.542190000000     0.494100000000     0.0491888  
H264     H      0.174230000000     0.538810000000     0.471180000000     0.0192051  
H265     H      0.212570000000     0.452860000000     0.554840000000     0.0366377  
H266     H      0.268050000000     0.456610000000     0.580490000000     0.0359353  
H267     H      0.332980000000     0.534690000000     0.516920000000     0.0389011  
H268     H      0.277880000000     0.530610000000     0.491100000000     0.0365177  
H269     H      0.312440000000     0.441060000000     0.568160000000     0.0512662  
H270     H      0.368940000000     0.439100000000     0.573160000000     0.017927   
H271     H      0.429880000000     0.545950000000     0.567380000000     0.0278294  
H272     H      0.373510000000     0.548910000000     0.562230000000     0.0524548  
H273     H      0.970780000000     0.527700000000     0.862680000000     0.0273079  
H274     H      0.970990000000     0.535080000000     0.810450000000     0.0523297  
H275     H      0.994850000000     0.453990000000     0.811200000000     0.0524832  
H276     H      0.995580000000     0.447840000000     0.863380000000     0.0259899  
H277     H      0.940700000000     0.510840000000     0.765490000000     0.0368883  
H278     H      0.944100000000     0.516860000000     0.712760000000     0.0378613  
H279     H      0.036400000000     0.499300000000     0.723100000000     0.0371244  
H280     H      0.033820000000     0.494170000000     0.775420000000     0.0373648  
H281     H      0.991240000000     0.554530000000     0.670080000000     0.0530306  
H282     H      0.994080000000     0.552160000000     0.618400000000     0.0262258  
H283     H      0.989620000000     0.456610000000     0.636100000000     0.0259445  
H284     H      0.987220000000     0.458670000000     0.686920000000     0.0531089  
H285     H      0.076000000000     0.467020000000     0.134320000000     0.0259064  
H286     H      0.083020000000     0.464640000000     0.186670000000     0.0522216  
H287     H      0.058680000000     0.545390000000     0.185170000000     0.0520717  
H288     H      0.051140000000     0.546960000000     0.132800000000     0.0245314  
H289     H      0.035220000000     0.448600000000     0.226000000000     0.0370088  
H290     H      0.031500000000     0.445110000000     0.278280000000     0.0363098  
H291     H      0.108210000000     0.550910000000     0.278200000000     0.0371858  
H292     H      0.110450000000     0.554410000000     0.225820000000     0.0373976  
H293     H      0.059070000000     0.448300000000     0.326430000000     0.0516346  
H294     H      0.046030000000     0.446980000000     0.376250000000     0.0248927  
H295     H      0.052990000000     0.543450000000     0.358290000000     0.0247203  
H296     H      0.064560000000     0.544910000000     0.308940000000     0.0515932  
H297     H      0.686650000000     0.077310000000     0.946890000000     0.0254351  
H298     H      0.747300000000     0.124070000000     0.937950000000     0.0513779  
H299     H      0.704130000000     0.192160000000     0.933870000000     0.0511615  
H300     H      0.644470000000     0.145460000000     0.943240000000     0.0203662  
H301     H      0.790220000000     0.171690000000     0.970880000000     0.0373418  
H302     H      0.847170000000     0.224160000000     0.976250000000     0.0378385  
H303     H      0.812390000000     0.271330000000     0.903430000000     0.0377154  
H304     H      0.755060000000     0.218890000000     0.898210000000     0.0370087  
H305     H      0.888840000000     0.300420000000     0.906570000000     0.0522182  
H306     H      0.934480000000     0.356540000000     0.919740000000     0.024233   
H307     H      0.890770000000     0.334150000000     0.003230000000     0.0233241  
H308     H      0.846420000000     0.278560000000     0.991070000000     0.0529102  
H309     H      0.103580000000     0.633230000000     0.076070000000     0.0244575  
H310     H      0.152650000000     0.688420000000     0.088960000000     0.0514538  
H311     H      0.194020000000     0.706000000000     0.004470000000     0.0506021  
H312     H      0.146230000000     0.651910000000     0.992590000000     0.0168184  
H313     H      0.185350000000     0.756230000000     0.072550000000     0.0368937  
H314     H      0.242190000000     0.809140000000     0.079740000000     0.036117   
H315     H      0.302330000000     0.768010000000     0.046720000000     0.0363955  
H316     H      0.246900000000     0.715950000000     0.040980000000     0.0364723  
H317     H      0.345830000000     0.802500000000     0.079430000000     0.0511805  
H318     H      0.402660000000     0.852430000000     0.069680000000     0.0202143  
H319     H      0.346620000000     0.908620000000     0.045150000000     0.0259095  
H320     H      0.288210000000     0.858000000000     0.052670000000     0.0510268  
H321     H      0.613190000000     0.425090000000     0.986940000000     0.0229708  
H322     H      0.667170000000     0.424130000000     0.010380000000     0.0505977  
H323     H      0.729480000000     0.530900000000     0.990870000000     0.0491621  
H324     H      0.675320000000     0.530890000000     0.967620000000     0.019313   
H325     H      0.728140000000     0.433520000000     0.003280000000     0.0369525  
H326     H      0.782990000000     0.435980000000     0.028110000000     0.038172   
H327     H      0.805630000000     0.525600000000     0.066120000000     0.0361304  
H328     H      0.750530000000     0.523170000000     0.040930000000     0.03453    
H329     H      0.812330000000     0.430510000000     0.073620000000     0.0521494  
H330     H      0.871340000000     0.433000000000     0.078880000000     0.0195169  
H331     H      0.924360000000     0.539330000000     0.061930000000     0.0279171  
H332     H      0.865690000000     0.537740000000     0.055070000000     0.0518695  
H333     H      0.365740000000     0.485470000000     0.042480000000     0.0168132  
H334     H      0.311870000000     0.490820000000     0.029200000000     0.05035    
H335     H      0.377790000000     0.584600000000     0.980120000000     0.0510719  
H336     H      0.431660000000     0.580130000000     0.997610000000     0.0244604  
H337     H      0.326260000000     0.588250000000     0.975580000000     0.0352338  
H338     H      0.271760000000     0.583330000000     0.948620000000     0.0348027  
H339     H      0.218780000000     0.475850000000     0.968070000000     0.0356804  
H340     H      0.274220000000     0.480350000000     0.990620000000     0.0349002  
H341     H      0.215940000000     0.576190000000     0.948150000000     0.0485659  
H342     H      0.155310000000     0.566650000000     0.934610000000     0.0132144  
H343     H      0.120310000000     0.465060000000     0.920990000000     0.0247558  
H344     H      0.181920000000     0.474600000000     0.930560000000     0.0504427  
H345     H      0.603250000000     0.635180000000     0.576690000000     0.0248733  
H346     H      0.648020000000     0.691590000000     0.589750000000     0.0519863  
H347     H      0.692910000000     0.712930000000     0.506310000000     0.0509916  
H348     H      0.649400000000     0.657030000000     0.494270000000     0.0183241  
H349     H      0.724690000000     0.721530000000     0.594150000000     0.0375814  
H350     H      0.781270000000     0.774530000000     0.599720000000     0.0372396  
H351     H      0.746590000000     0.820360000000     0.525680000000     0.0375261  
H352     H      0.690410000000     0.767270000000     0.519870000000     0.0373634  
H353     H      0.788740000000     0.868670000000     0.560100000000     0.0518353  
H354     H      0.849490000000     0.915840000000     0.551690000000     0.0254391  
H355     H      0.891960000000     0.848060000000     0.554130000000     0.0244687  
H356     H      0.832400000000     0.801090000000     0.563140000000     0.0525808  
H357     H      0.187560000000     0.079830000000     0.448100000000     0.0245963  
H358     H      0.248270000000     0.126450000000     0.438330000000     0.0512588  
H359     H      0.207680000000     0.195400000000     0.441540000000     0.0526847  
H360     H      0.148310000000     0.149020000000     0.452060000000     0.0225071  
H361     H      0.255450000000     0.220640000000     0.401220000000     0.0369444  
H362     H      0.312530000000     0.273540000000     0.405170000000     0.0376337  
H363     H      0.350410000000     0.228070000000     0.477310000000     0.0378291  
H364     H      0.293690000000     0.175030000000     0.473050000000     0.0381844  
H365     H      0.389310000000     0.303660000000     0.407060000000     0.0521276  
H366     H      0.433980000000     0.360440000000     0.419300000000     0.0242186  
H367     H      0.391620000000     0.338590000000     0.503280000000     0.0181518  
H368     H      0.348290000000     0.282330000000     0.492050000000     0.0520588  
H369     H      0.863920000000     0.974220000000     0.424130000000     0.0224881  
H370     H      0.801630000000     0.963060000000     0.412300000000     0.0516638  
H371     H      0.792990000000     0.976490000000     0.500290000000     0.0517412  
H372     H      0.855080000000     0.987340000000     0.511650000000     0.0260764  
H373     H      0.764600000000     0.007390000000     0.468580000000     0.0374488  
H374     H      0.703780000000     0.000570000000     0.456280000000     0.0400854  
H375     H      0.674070000000     0.912270000000     0.413250000000     0.0373353  
H376     H      0.735590000000     0.919210000000     0.425570000000     0.036325   
H377     H      0.669790000000     0.004170000000     0.406770000000     0.0556414  
H378     H      0.612420000000     0.004650000000     0.404620000000     0.0228028  
H379     H      0.559050000000     0.903090000000     0.440530000000     0.0223088  
H380     H      0.616500000000     0.901590000000     0.442630000000     0.051121   
H381     H      0.172950000000     0.015900000000     0.578040000000     0.0220684  
H382     H      0.236690000000     0.033160000000     0.589050000000     0.0503363  
H383     H      0.255440000000     0.058010000000     0.497780000000     0.049974   
H384     H      0.191210000000     0.037630000000     0.487590000000     0.0261949  
H385     H      0.295860000000     0.072980000000     0.593860000000     0.0356891  
H386     H      0.357530000000     0.081450000000     0.606180000000     0.0374505  
H387     H      0.361450000000     0.055570000000     0.521620000000     0.0352406  
H388     H      0.299250000000     0.044110000000     0.509830000000     0.0358272  
H389     H      0.370500000000     0.022000000000     0.600060000000     0.0542424  
H390     H      0.418070000000     0.006960000000     0.599360000000     0.0238335  
H391     H      0.482070000000     0.097790000000     0.548360000000     0.0258489  
H392     H      0.433740000000     0.112750000000     0.547260000000     0.0522382  
H393     H      0.047120000000     0.648620000000     0.426950000000     0.0259796  
H394     H      0.056640000000     0.705600000000     0.419520000000     0.0514317  
H395     H      0.039690000000     0.701500000000     0.509710000000     0.0509409  
H396     H      0.029510000000     0.644990000000     0.516320000000     0.0261069  
H397     H      0.097040000000     0.765370000000     0.432600000000     0.036419   
H398     H      0.098970000000     0.820120000000     0.426190000000     0.036737   
H399     H      0.006960000000     0.780520000000     0.479750000000     0.0369987  
H400     H      0.004360000000     0.726510000000     0.485320000000     0.036519   
H401     H      0.110680000000     0.869080000000     0.455490000000     0.051276   
H402     H      0.105750000000     0.919070000000     0.460430000000     0.0230529  
H403     H      0.989970000000     0.862960000000     0.446000000000     0.0289395  
H404     H      0.993960000000     0.813740000000     0.439990000000     0.0551352  
H405     H      0.044330000000     0.135600000000     0.551040000000     0.0240893  
H406     H      0.038710000000     0.184280000000     0.555650000000     0.0525127  
H407     H      0.922050000000     0.126160000000     0.540960000000     0.0516939  
H408     H      0.928730000000     0.076610000000     0.537940000000     0.0243581  
H409     H      0.931440000000     0.175690000000     0.567230000000     0.0369892  
H410     H      0.932130000000     0.229880000000     0.559330000000     0.0370451  
H411     H      0.027310000000     0.269580000000     0.509300000000     0.0367026  
H412     H      0.025560000000     0.216070000000     0.515900000000     0.0378692  
H413     H      0.968630000000     0.288920000000     0.571900000000     0.0515182  
H414     H      0.977650000000     0.345680000000     0.563880000000     0.0237447  
H415     H      0.005220000000     0.351800000000     0.476850000000     0.0237121  
H416     H      0.994820000000     0.295310000000     0.483750000000     0.0523918  
H417     H      0.983330000000     0.035000000000     0.863580000000     0.0218103  
H418     H      0.976590000000     0.035490000000     0.811500000000     0.0516827  
H419     H      0.952930000000     0.932670000000     0.818150000000     0.0526995  
H420     H      0.959780000000     0.932740000000     0.870540000000     0.0258092  
H421     H      0.916490000000     0.939410000000     0.772570000000     0.0374166  
H422     H      0.921660000000     0.941910000000     0.720260000000     0.0376308  
H423     H      0.021570000000     0.035820000000     0.724930000000     0.0344394  
H424     H      0.016540000000     0.033400000000     0.776800000000     0.0341153  
H425     H      0.923310000000     0.980770000000     0.672180000000     0.053108   
H426     H      0.933960000000     0.983570000000     0.621360000000     0.0262574  
H427     H      0.042580000000     0.000670000000     0.644890000000     0.0208183  
H428     H      0.032730000000     0.998370000000     0.695260000000     0.0517407  
H429     H      0.992420000000     0.989160000000     0.357810000000     0.0236111  
H430     H      0.001770000000     0.990120000000     0.307550000000     0.050711   
H431     H      0.112010000000     0.009900000000     0.330480000000     0.0522024  
H432     H      0.101910000000     0.008670000000     0.381090000000     0.0258888  
H433     H      0.012550000000     0.954150000000     0.277510000000     0.0367049  
H434     H      0.018100000000     0.956220000000     0.225800000000     0.0364447  
H435     H      0.120030000000     0.048500000000     0.230660000000     0.0368426  
H436     H      0.114200000000     0.046530000000     0.282720000000     0.0370895  
H437     H      0.086540000000     0.056620000000     0.184570000000     0.0524843  
H438     H      0.081860000000     0.056820000000     0.132210000000     0.0257571  
H439     H      0.052000000000     0.952910000000     0.139700000000     0.0179454  
H440     H      0.056700000000     0.952150000000     0.191770000000     0.0505929  
H441     H      0.600630000000     0.649750000000     0.046290000000     0.0260693  
H442     H      0.647080000000     0.707610000000     0.034870000000     0.0520497  
H443     H      0.726770000000     0.674860000000     0.034700000000     0.0513284  
H444     H      0.680360000000     0.617850000000     0.046300000000     0.021235   
H445     H      0.717000000000     0.756960000000     0.052460000000     0.0372733  
H446     H      0.765240000000     0.809950000000     0.032160000000     0.0368484  
H447     H      0.769120000000     0.760140000000     0.960940000000     0.0361795  
H448     H      0.722220000000     0.707110000000     0.982280000000     0.0368608  
H449     H      0.783730000000     0.853610000000     0.995720000000     0.0520356  
H450     H      0.840380000000     0.904540000000     0.987640000000     0.0251581  
H451     H      0.886790000000     0.849720000000     0.958840000000     0.0249892  
H452     H      0.831040000000     0.797840000000     0.968170000000     0.0508684  
H453     H      0.359120000000     0.373250000000     0.961730000000     0.0178946  
H454     H      0.315730000000     0.315840000000     0.975270000000     0.051346   
H455     H      0.396550000000     0.286720000000     0.966000000000     0.0534035  
H456     H      0.440070000000     0.345180000000     0.952480000000     0.0257378  
H457     H      0.324040000000     0.282780000000     0.025020000000     0.0377751  
H458     H      0.277590000000     0.228860000000     0.045440000000     0.0363419  
H459     H      0.279280000000     0.182740000000     0.970750000000     0.0379477  
H460     H      0.326840000000     0.236610000000     0.951150000000     0.0371253  
H461     H      0.214840000000     0.192420000000     0.036930000000     0.0513044  
H462     H      0.158580000000     0.140570000000     0.044900000000     0.0257096  
H463     H      0.204210000000     0.086590000000     0.013290000000     0.0229103  
H464     H      0.261190000000     0.137470000000     0.006300000000     0.0523628  
H465     H      0.979080000000     0.087900000000     0.061180000000     0.0238873  
H466     H      0.925820000000     0.095380000000     0.062370000000     0.0514929  
H467     H      0.863150000000     0.991070000000     0.091950000000     0.0539915  
H468     H      0.916430000000     0.984750000000     0.090890000000     0.0247287  
H469     H      0.868700000000     0.074750000000     0.030850000000     0.0356973  
H470     H      0.808520000000     0.069980000000     0.019690000000     0.0362486  
H471     H      0.771870000000     0.009880000000     0.100350000000     0.0369626  
H472     H      0.832400000000     0.015810000000     0.111990000000     0.0371832  
H473     H      0.748660000000     0.025930000000     0.005680000000     0.0514591  
H474     H      0.686540000000     0.013960000000     0.992670000000     0.0254066  
H475     H      0.672780000000     0.024220000000     0.079770000000     0.0266422  
H476     H      0.735050000000     0.037020000000     0.093220000000     0.0517526  
H477     H      0.346670000000     0.970450000000     0.006540000000     0.0256937  
H478     H      0.282620000000     0.951320000000     0.993730000000     0.0507264  
H479     H      0.295670000000     0.925670000000     0.911610000000     0.0513188  
H480     H      0.359590000000     0.946110000000     0.924510000000     0.0278438  
H481     H      0.223720000000     0.904910000000     0.984850000000     0.0360088  
H482     H      0.162910000000     0.897990000000     0.971980000000     0.0366545  
H483     H      0.193830000000     0.938000000000     0.884590000000     0.0364835  
H484     H      0.255010000000     0.946560000000     0.897700000000     0.0364007  
H485     H      0.169730000000     0.971370000000     0.899540000000     0.0528187  
H486     H      0.123470000000     0.986520000000     0.903890000000     0.0227557  
H487     H      0.056010000000     0.890620000000     0.946470000000     0.0255156  
H488     H      0.102590000000     0.874370000000     0.943020000000     0.0513042  
H489     H      0.998200000000     0.841690000000     0.051520000000     0.0197588  
H490     H      0.983700000000     0.783760000000     0.051910000000     0.0511165  
H491     H      0.936220000000     0.780880000000     0.964870000000     0.0518338  
H492     H      0.951600000000     0.838670000000     0.964820000000     0.026367   
H493     H      0.934190000000     0.725420000000     0.050260000000     0.0358396  
H494     H      0.930560000000     0.670910000000     0.049290000000     0.0357548  
H495     H      0.968640000000     0.698970000000     0.962620000000     0.037788   
H496     H      0.972100000000     0.753020000000     0.963560000000     0.0374967  
H497     H      0.975620000000     0.652540000000     0.050320000000     0.052053   
H498     H      0.987760000000     0.606810000000     0.049040000000     0.0269638  
H499     H      0.943010000000     0.593370000000     0.961640000000     0.0259435  
H500     H      0.929700000000     0.638790000000     0.962580000000     0.0518384  
H501     H      0.047440000000     0.378020000000     0.950230000000     0.0266799  
H502     H      0.061600000000     0.333370000000     0.949240000000     0.051856   
H503     H      0.107060000000     0.348410000000     0.037020000000     0.0515205  
H504     H      0.091810000000     0.392530000000     0.037670000000     0.025147   
H505     H      0.109820000000     0.318410000000     0.950480000000     0.0356757  
H506     H      0.110900000000     0.265890000000     0.949840000000     0.0358204  
H507     H      0.072070000000     0.236020000000     0.036270000000     0.036962   
H508     H      0.070960000000     0.288080000000     0.036890000000     0.0373831  
H509     H      0.064480000000     0.206970000000     0.947850000000     0.0512181  
H510     H      0.051140000000     0.149410000000     0.948710000000     0.0222445  
H511     H      0.096220000000     0.153170000000     0.035950000000     0.0260059  
H512     H      0.110610000000     0.210820000000     0.035440000000     0.0514611  
N1       N      0.561180000000     0.508100000000     0.628900000000    -0.193496   
N2       N      0.543720000000     0.491300000000     0.870450000000    -0.193751   
N3       N      0.500460000000     0.507860000000     0.124370000000    -0.193367   
N4       N      0.481990000000     0.492380000000     0.366050000000    -0.193567   
N5       N      0.465530000000     0.599690000000     0.506130000000    -0.193262   
N6       N      0.465430000000     0.841880000000     0.509400000000    -0.193509   
N7       N      0.557840000000     0.142950000000     0.492620000000    -0.194201   
N8       N      0.563540000000     0.389920000000     0.492330000000    -0.193995   
N9       N      0.548510000000     0.994360000000     0.872750000000    -0.191489   
N10      N      0.566970000000     0.005270000000     0.629770000000    -0.191834   
N11      N      0.489700000000     0.999780000000     0.126440000000    -0.191724   
N12      N      0.467070000000     0.982770000000     0.369720000000    -0.191573   
N13      N      0.547490000000     0.644610000000     0.971820000000    -0.190974   
N14      N      0.557430000000     0.890860000000     0.968130000000    -0.192843   
N15      N      0.486580000000     0.101860000000     0.037980000000    -0.192388   
N16      N      0.492400000000     0.352340000000     0.020980000000    -0.190674   
N17      N      0.904960000000     0.364300000000     0.450910000000    -0.194399   
N18      N      0.670020000000     0.110510000000     0.519700000000    -0.192628   
N19      N      0.359600000000     0.876210000000     0.479880000000    -0.193627   
N20      N      0.125440000000     0.627400000000     0.550800000000    -0.19417    
N21      N      0.631630000000     0.517360000000     0.434400000000    -0.199583   
N22      N      0.891920000000     0.525960000000     0.518940000000    -0.194104   
N23      N      0.142070000000     0.485520000000     0.479210000000    -0.195887   
N24      N      0.403290000000     0.492380000000     0.568520000000    -0.193746   
N25      N      0.984060000000     0.487760000000     0.867090000000    -0.193356   
N26      N      0.992650000000     0.504530000000     0.623300000000    -0.193613   
N27      N      0.062430000000     0.506810000000     0.129570000000    -0.19358    
N28      N      0.048460000000     0.495010000000     0.371140000000    -0.19354    
N29      N      0.661160000000     0.107860000000     0.946500000000    -0.191959   
N30      N      0.915690000000     0.349840000000     0.962220000000    -0.191842   
N31      N      0.122150000000     0.637790000000     0.033920000000    -0.192843   
N32      N      0.378600000000     0.883780000000     0.055440000000    -0.192374   
N33      N      0.639960000000     0.478260000000     0.976800000000    -0.198434   
N34      N      0.901750000000     0.486050000000     0.068760000000    -0.193914   
N35      N      0.402000000000     0.531750000000     0.019930000000    -0.19491    
N36      N      0.132830000000     0.514520000000     0.928980000000    -0.197932   
N37      N      0.623230000000     0.641600000000     0.534730000000    -0.192328   
N38      N      0.875090000000     0.885480000000     0.551500000000    -0.191495   
N39      N      0.163610000000     0.110890000000     0.451550000000    -0.191787   
N40      N      0.415790000000     0.354040000000     0.461960000000    -0.192717   
N41      N      0.864410000000     0.981790000000     0.468760000000    -0.191832   
N42      N      0.582350000000     0.954640000000     0.424200000000    -0.199035   
N43      N      0.177120000000     0.025160000000     0.532000000000    -0.191996   
N44      N      0.452470000000     0.050590000000     0.572670000000    -0.194374   
N45      N      0.036910000000     0.642150000000     0.472040000000    -0.191361   
N46      N      0.047400000000     0.894070000000     0.455220000000    -0.192973   
N47      N      0.987060000000     0.103090000000     0.542620000000    -0.192397   
N48      N      0.992630000000     0.353350000000     0.519910000000    -0.192785   
N49      N      0.973170000000     0.984130000000     0.871070000000    -0.193112   
N50      N      0.989080000000     0.992440000000     0.629180000000    -0.192657   
N51      N      0.046440000000     0.998830000000     0.373370000000    -0.193026   
N52      N      0.065610000000     0.004710000000     0.131910000000    -0.193525   
N53      N      0.636640000000     0.629440000000     0.045110000000    -0.193475   
N54      N      0.868250000000     0.880600000000     0.973980000000    -0.193851   
N55      N      0.403510000000     0.363660000000     0.958030000000    -0.194399   
N56      N      0.176680000000     0.110140000000     0.028290000000    -0.193881   
N57      N      0.951110000000     0.035480000000     0.074680000000    -0.198344   
N58      N      0.674750000000     0.018060000000     0.035180000000    -0.191562   
N59      N      0.358240000000     0.960190000000     0.966440000000    -0.191599   
N60      N      0.087510000000     0.940250000000     0.926810000000    -0.194131   
N61      N      0.976800000000     0.844840000000     0.007960000000    -0.194188   
N62      N      0.967340000000     0.597260000000     0.004940000000    -0.193222   
N63      N      0.067810000000     0.388220000000     0.994220000000    -0.193719   
N64      N      0.071530000000     0.146580000000     0.992680000000    -0.193872   
O1       O      0.138660000000     0.061280000000     0.008570000000    -0.382785   
O2       O      0.115990000000     0.081270000000     0.038190000000    -0.368347   
O3       O      0.992830000000     0.013810000000     0.911060000000    -0.380853   
O4       O      0.979860000000     0.959420000000     0.915540000000    -0.378188   
O5       O      0.045230000000     0.097120000000     0.971360000000    -0.37137    
O6       O      0.064320000000     0.098720000000     0.018880000000    -0.369424   
O7       O      0.089810000000     0.983950000000     0.945620000000    -0.385243   
O8       O      0.036550000000     0.935180000000     0.945700000000    -0.361947   
O9       O      0.137970000000     0.050210000000     0.952690000000    -0.331183   
O10      O      0.129460000000     0.989140000000     0.006870000000    -0.525403   
O11      O      0.054520000000     0.077930000000     0.918300000000    -0.521399   
O12      O      0.969130000000     0.054540000000     0.942530000000    -0.353131   
O13      O      0.068980000000     0.050260000000     0.988190000000    -0.499923   
O14      O      0.041060000000     0.003660000000     0.953080000000    -0.6362     
O15      O      0.002690000000     0.894020000000     0.029840000000    -0.379404   
O16      O      0.981510000000     0.892370000000     0.982840000000    -0.370329   
O17      O      0.969320000000     0.999070000000     0.064110000000    -0.356785   
O18      O      0.008700000000     0.053080000000     0.059640000000    -0.368788   
O19      O      0.906150000000     0.929640000000     0.993440000000    -0.383306   
O20      O      0.928900000000     0.909540000000     0.963980000000    -0.36807    
O21      O      0.046730000000     0.975410000000     0.091730000000    -0.377543   
O22      O      0.063590000000     0.030750000000     0.086980000000    -0.374588   
O23      O      0.987650000000     0.910290000000     0.081870000000    -0.521716   
O24      O      0.076430000000     0.938600000000     0.061590000000    -0.353029   
O25      O      0.898830000000     0.945900000000     0.044190000000    -0.337926   
O26      O      0.919750000000     0.008550000000     0.001130000000    -0.533234   
O27      O      0.974890000000     0.940400000000     0.014110000000    -0.629446   
O28      O      0.003480000000     0.987200000000     0.048860000000    -0.470419   
O29      O      0.045650000000     0.957420000000     0.998260000000    -0.493736   
O30      O      0.998740000000     0.033740000000     0.003850000000    -0.626114   
O31      O      0.074270000000     0.005320000000     0.034110000000    -0.62992    
O32      O      0.969990000000     0.985190000000     0.968310000000    -0.500569   
O33      O      0.012040000000     0.909580000000     0.475210000000    -0.377299   
O34      O      0.069970000000     0.948880000000     0.465280000000    -0.371422   
O35      O      0.918330000000     0.988470000000     0.454980000000    -0.372254   
O36      O      0.911850000000     0.991100000000     0.502120000000    -0.367912   
O37      O      0.010170000000     0.995960000000     0.407780000000    -0.38248    
O38      O      0.066090000000     0.001300000000     0.421300000000    -0.373975   
O39      O      0.929740000000     0.903310000000     0.532280000000    -0.376945   
O40      O      0.914850000000     0.941790000000     0.542790000000    -0.365052   
O41      O      0.938700000000     0.879170000000     0.485300000000    -0.331901   
O42      O      0.000250000000     0.894050000000     0.542890000000    -0.534566   
O43      O      0.935460000000     0.954330000000     0.417930000000    -0.520975   
O44      O      0.977920000000     0.041840000000     0.416500000000    -0.344218   
O45      O      0.007860000000     0.963510000000     0.463750000000    -0.495966   
O46      O      0.956180000000     0.960610000000     0.491070000000    -0.635397   
O47      O      0.025770000000     0.996430000000     0.594660000000    -0.383875   
O48      O      0.970870000000     0.993380000000     0.581000000000    -0.37262    
O49      O      0.109730000000     0.093230000000     0.472010000000    -0.378049   
O50      O      0.122840000000     0.054650000000     0.458860000000    -0.36223    
O51      O      0.022630000000     0.088380000000     0.522080000000    -0.385394   
O52      O      0.967110000000     0.047630000000     0.536460000000    -0.366029   
O53      O      0.121200000000     0.012220000000     0.546680000000    -0.369142   
O54      O      0.128230000000     0.011040000000     0.499330000000    -0.367479   
O55      O      0.099950000000     0.040480000000     0.586420000000    -0.520867   
O56      O      0.062030000000     0.954100000000     0.583870000000    -0.355868   
O57      O      0.097930000000     0.115200000000     0.520670000000    -0.334168   
O58      O      0.041920000000     0.103380000000     0.457860000000    -0.529334   
O59      O      0.030220000000     0.032880000000     0.538740000000    -0.631862   
O60      O      0.081630000000     0.035550000000     0.511210000000    -0.499275   
O61      O      0.995860000000     0.962800000000     0.544680000000    -0.497363   
O62      O      0.041960000000     0.033810000000     0.457580000000    -0.632463   
O63      O      0.049200000000     0.964790000000     0.516800000000    -0.632063   
O64      O      0.989140000000     0.031610000000     0.485440000000    -0.49243    
O65      O      0.063530000000     0.425770000000     0.019150000000    -0.374026   
O66      O      0.041480000000     0.418970000000     0.972390000000    -0.369319   
O67      O      0.925130000000     0.458610000000     0.049350000000    -0.383953   
O68      O      0.962310000000     0.512800000000     0.058830000000    -0.36075    
O69      O      0.932030000000     0.391660000000     0.991400000000    -0.376944   
O70      O      0.966220000000     0.401490000000     0.953410000000    -0.368981   
O71      O      0.061540000000     0.486140000000     0.087280000000    -0.381938   
O72      O      0.041440000000     0.523800000000     0.086940000000    -0.379821   
O73      O      0.037840000000     0.419440000000     0.074680000000    -0.336586   
O74      O      0.118610000000     0.487760000000     0.050340000000    -0.525905   
O75      O      0.937310000000     0.398720000000     0.055730000000    -0.533786   
O76      O      0.888130000000     0.420950000000     0.000640000000    -0.340302   
O77      O      0.002800000000     0.435770000000     0.008510000000    -0.500127   
O78      O      0.002670000000     0.472140000000     0.047830000000    -0.636794   
O79      O      0.105600000000     0.595100000000     0.005900000000    -0.388335   
O80      O      0.071170000000     0.586410000000     0.043380000000    -0.365018   
O81      O      0.982120000000     0.506140000000     0.909800000000    -0.376569   
O82      O      0.998500000000     0.465940000000     0.910150000000    -0.372949   
O83      O      0.971210000000     0.559600000000     0.979680000000    -0.374948   
O84      O      0.995610000000     0.567870000000     0.025730000000    -0.369044   
O85      O      0.089940000000     0.530070000000     0.934290000000    -0.363716   
O86      O      0.072470000000     0.476170000000     0.934010000000    -0.363689   
O87      O      0.122180000000     0.596270000000     0.952320000000    -0.522543   
O88      O      0.145170000000     0.548430000000     0.997360000000    -0.363744   
O89      O      0.998370000000     0.569430000000     0.925100000000    -0.333756   
O90      O      0.919160000000     0.497330000000     0.945840000000    -0.53414    
O91      O      0.035750000000     0.551640000000     0.988710000000    -0.632672   
O92      O      0.034850000000     0.515270000000     0.950330000000    -0.48051    
O93      O      0.072090000000     0.525140000000     0.030190000000    -0.495227   
O94      O      0.965740000000     0.462350000000     0.967420000000    -0.631165   
O95      O      0.070580000000     0.488060000000     0.991080000000    -0.625747   
O96      O      0.967910000000     0.498670000000     0.006660000000    -0.497359   
O97      O      0.994050000000     0.399110000000     0.536240000000    -0.372596   
O98      O      0.009970000000     0.401770000000     0.490640000000    -0.366556   
O99      O      0.912190000000     0.493960000000     0.503060000000    -0.382158   
O100     O      0.952930000000     0.541180000000     0.524240000000    -0.366748   
O101     O      0.918800000000     0.416100000000     0.461010000000    -0.383879   
O102     O      0.964570000000     0.406180000000     0.452760000000    -0.362926   
O103     O      0.996020000000     0.477340000000     0.587250000000    -0.37885    
O104     O      0.000380000000     0.528600000000     0.576490000000    -0.37725    
O105     O      0.946370000000     0.410590000000     0.568730000000    -0.340996   
O106     O      0.040960000000     0.444250000000     0.582760000000    -0.527646   
O107     O      0.881020000000     0.429050000000     0.495030000000    -0.516585   
O108     O      0.914710000000     0.483530000000     0.435870000000    -0.356464   
O109     O      0.973410000000     0.440530000000     0.499270000000    -0.499009   
O110     O      0.968070000000     0.481870000000     0.528160000000    -0.628401   
O111     O      0.110600000000     0.577150000000     0.535860000000    -0.386996   
O112     O      0.065300000000     0.587630000000     0.543990000000    -0.366241   
O113     O      0.040800000000     0.520600000000     0.406460000000    -0.378168   
O114     O      0.033300000000     0.468100000000     0.416560000000    -0.37782    
O115     O      0.033950000000     0.596030000000     0.455050000000    -0.372794   
O116     O      0.021430000000     0.594190000000     0.501570000000    -0.365389   
O117     O      0.108430000000     0.512530000000     0.470830000000    -0.354899   
O118     O      0.079530000000     0.457540000000     0.470080000000    -0.366251   
O119     O      0.153670000000     0.565380000000     0.508800000000    -0.520392   
O120     O      0.116500000000     0.502090000000     0.549030000000    -0.364943   
O121     O      0.081850000000     0.587380000000     0.422880000000    -0.335972   
O122     O      0.986920000000     0.547150000000     0.409350000000    -0.524707   
O123     O      0.057790000000     0.555980000000     0.492960000000    -0.632943   
O124     O      0.062230000000     0.514130000000     0.464490000000    -0.467516   
O125     O      0.043470000000     0.511700000000     0.544140000000    -0.498138   
O126     O      0.987060000000     0.483910000000     0.448100000000    -0.626887   
O127     O      0.048840000000     0.468250000000     0.515080000000    -0.62914    
O128     O      0.981930000000     0.527640000000     0.477820000000    -0.492251   
O129     O      0.414420000000     0.971240000000     0.954290000000    -0.373529   
O130     O      0.407770000000     0.981490000000     0.998970000000    -0.367324   
O131     O      0.521610000000     0.905660000000     0.988680000000    -0.380764   
O132     O      0.573470000000     0.946510000000     0.968730000000    -0.368175   
O133     O      0.433380000000     0.902230000000     0.036630000000    -0.381034   
O134     O      0.414860000000     0.939840000000     0.042290000000    -0.360995   
O135     O      0.511020000000     0.989870000000     0.906830000000    -0.377138   
O136     O      0.567570000000     0.997170000000     0.921030000000    -0.368242   
O137     O      0.437960000000     0.944190000000     0.915820000000    -0.335951   
O138     O      0.470610000000     0.029690000000     0.914460000000    -0.529224   
O139     O      0.443380000000     0.879660000000     0.985750000000    -0.525267   
O140     O      0.499380000000     0.892300000000     0.049380000000    -0.34608    
O141     O      0.456690000000     0.956170000000     0.991450000000    -0.497698   
O142     O      0.508970000000     0.958050000000     0.965140000000    -0.63232    
O143     O      0.605820000000     0.090210000000     0.964620000000    -0.38004    
O144     O      0.622220000000     0.051770000000     0.956970000000    -0.366091   
O145     O      0.527340000000     0.004730000000     0.092280000000    -0.378147   
O146     O      0.470060000000     0.995670000000     0.078310000000    -0.370201   
O147     O      0.620320000000     0.011650000000     0.047290000000    -0.373161   
O148     O      0.627510000000     0.006350000000     0.001020000000    -0.36718    
O149     O      0.521430000000     0.085720000000     0.018030000000    -0.372321   
O150     O      0.465000000000     0.046110000000     0.031400000000    -0.369352   
O151     O      0.592800000000     0.118240000000     0.005430000000    -0.515604   
O152     O      0.530630000000     0.093910000000     0.948670000000    -0.359141   
O153     O      0.602220000000     0.052500000000     0.078270000000    -0.341231   
O154     O      0.564800000000     0.964600000000     0.088670000000    -0.531445   
O155     O      0.580890000000     0.036240000000     0.007940000000    -0.634579   
O156     O      0.528130000000     0.033980000000     0.033840000000    -0.49367    
O157     O      0.540200000000     0.027980000000     0.954170000000    -0.499235   
O158     O      0.497360000000     0.964220000000     0.044850000000    -0.632192   
O159     O      0.485750000000     0.026240000000     0.980670000000    -0.628076   
O160     O      0.551140000000     0.966110000000     0.018610000000    -0.495952   
O161     O      0.531300000000     0.093150000000     0.471840000000    -0.38013    
O162     O      0.556510000000     0.096620000000     0.517730000000    -0.368919   
O163     O      0.398450000000     0.926010000000     0.497760000000    -0.381642   
O164     O      0.419050000000     0.905660000000     0.466670000000    -0.368259   
O165     O      0.452240000000     0.004880000000     0.559780000000    -0.383853   
O166     O      0.503340000000     0.054820000000     0.554450000000    -0.35838    
O167     O      0.485910000000     0.011580000000     0.410200000000    -0.369187   
O168     O      0.469330000000     0.956310000000     0.414600000000    -0.370452   
O169     O      0.454670000000     0.046080000000     0.443190000000    -0.357578   
O170     O      0.541550000000     0.077520000000     0.418520000000    -0.519726   
O171     O      0.407260000000     0.998050000000     0.500690000000    -0.530241   
O172     O      0.403610000000     0.937740000000     0.554110000000    -0.330881   
O173     O      0.491680000000     0.030490000000     0.504750000000    -0.497068   
O174     O      0.460280000000     0.981740000000     0.469410000000    -0.630506   
O175     O      0.560610000000     0.988570000000     0.434160000000    -0.352165   
O176     O      0.524400000000     0.934290000000     0.439790000000    -0.363878   
O177     O      0.548230000000     0.975980000000     0.589470000000    -0.380837   
O178     O      0.560610000000     0.030220000000     0.585180000000    -0.377636   
O179     O      0.493960000000     0.892050000000     0.529820000000    -0.369604   
O180     O      0.471780000000     0.889350000000     0.483020000000    -0.369226   
O181     O      0.629850000000     0.061610000000     0.500710000000    -0.385913   
O182     O      0.611010000000     0.080120000000     0.534560000000    -0.366437   
O183     O      0.617770000000     0.981980000000     0.495180000000    -0.533026   
O184     O      0.634940000000     0.041630000000     0.451150000000    -0.340537   
O185     O      0.574190000000     0.937890000000     0.554310000000    -0.356284   
O186     O      0.490930000000     0.911040000000     0.583640000000    -0.519913   
O187     O      0.538350000000     0.955180000000     0.495380000000    -0.624937   
O188     O      0.569680000000     0.004600000000     0.530360000000    -0.501078   
O189     O      0.529970000000     0.000540000000     0.451150000000    -0.463897   
O190     O      0.499740000000     0.985580000000     0.549020000000    -0.633306   
O191     O      0.560660000000     0.048120000000     0.485310000000    -0.628904   
O192     O      0.469790000000     0.938390000000     0.514530000000    -0.497633   
O193     O      0.498140000000     0.399630000000     0.038160000000    -0.369721   
O194     O      0.508490000000     0.400210000000     0.991280000000    -0.364645   
O195     O      0.419200000000     0.493510000000     0.015000000000    -0.382735   
O196     O      0.462770000000     0.546600000000     0.022140000000    -0.36341    
O197     O      0.420780000000     0.415720000000     0.970070000000    -0.382416   
O198     O      0.462940000000     0.405590000000     0.954050000000    -0.36593    
O199     O      0.505450000000     0.480830000000     0.088900000000    -0.379841   
O200     O      0.509310000000     0.531890000000     0.077560000000    -0.377232   
O201     O      0.456710000000     0.413340000000     0.074140000000    -0.339063   
O202     O      0.551840000000     0.448020000000     0.081970000000    -0.526171   
O203     O      0.381960000000     0.434160000000     0.995730000000    -0.513811   
O204     O      0.418760000000     0.488140000000     0.942160000000    -0.355628   
O205     O      0.476600000000     0.441370000000     0.002390000000    -0.496444   
O206     O      0.475970000000     0.484680000000     0.031860000000    -0.629125   
O207     O      0.619260000000     0.578090000000     0.031210000000    -0.380595   
O208     O      0.576060000000     0.589630000000     0.042900000000    -0.365173   
O209     O      0.538350000000     0.517780000000     0.906110000000    -0.379749   
O210     O      0.530330000000     0.465170000000     0.916350000000    -0.376508   
O211     O      0.538630000000     0.596040000000     0.955410000000    -0.373394   
O212     O      0.532240000000     0.597590000000     0.002820000000    -0.360961   
O213     O      0.609620000000     0.508340000000     0.967900000000    -0.360227   
O214     O      0.577490000000     0.453290000000     0.968210000000    -0.367375   
O215     O      0.658440000000     0.563070000000     0.002370000000    -0.520787   
O216     O      0.622240000000     0.501930000000     0.046180000000    -0.360818   
O217     O      0.581110000000     0.584890000000     0.920010000000    -0.335035   
O218     O      0.486340000000     0.545950000000     0.911510000000    -0.524161   
O219     O      0.563090000000     0.555820000000     0.991620000000    -0.634145   
O220     O      0.563310000000     0.512280000000     0.962860000000    -0.470247   
O221     O      0.551810000000     0.513470000000     0.043610000000    -0.490353   
O222     O      0.486900000000     0.483160000000     0.950400000000    -0.628207   
O223     O      0.552670000000     0.467790000000     0.014040000000    -0.627797   
O224     O      0.486490000000     0.529060000000     0.980340000000    -0.492351   
O225     O      0.560920000000     0.428170000000     0.517480000000    -0.378508   
O226     O      0.539420000000     0.422510000000     0.470550000000    -0.369419   
O227     O      0.424920000000     0.464550000000     0.547340000000    -0.381061   
O228     O      0.463930000000     0.517520000000     0.559220000000    -0.362049   
O229     O      0.431870000000     0.396180000000     0.490720000000    -0.381338   
O230     O      0.465310000000     0.406090000000     0.452230000000    -0.369489   
O231     O      0.560280000000     0.488180000000     0.586250000000    -0.380299   
O232     O      0.541600000000     0.526760000000     0.586420000000    -0.378561   
O233     O      0.535870000000     0.422060000000     0.573000000000    -0.340641   
O234     O      0.617230000000     0.489500000000     0.548860000000    -0.525302   
O235     O      0.431870000000     0.403210000000     0.553440000000    -0.529261   
O236     O      0.388750000000     0.428920000000     0.495860000000    -0.354579   
O237     O      0.501460000000     0.439960000000     0.506840000000    -0.499933   
O238     O      0.502010000000     0.475950000000     0.546440000000    -0.633924   
O239     O      0.607310000000     0.599680000000     0.505700000000    -0.38665    
O240     O      0.572580000000     0.589960000000     0.543300000000    -0.366786   
O241     O      0.482630000000     0.512050000000     0.408820000000    -0.377832   
O242     O      0.497070000000     0.470620000000     0.408890000000    -0.373435   
O243     O      0.470950000000     0.563560000000     0.480060000000    -0.370901   
O244     O      0.496210000000     0.572030000000     0.525860000000    -0.369535   
O245     O      0.587380000000     0.532620000000     0.433750000000    -0.359415   
O246     O      0.570710000000     0.479530000000     0.431910000000    -0.36149    
O247     O      0.626660000000     0.599980000000     0.452930000000    -0.524249   
O248     O      0.645000000000     0.550220000000     0.497970000000    -0.36226    
O249     O      0.504600000000     0.577530000000     0.426080000000    -0.341867   
O250     O      0.421890000000     0.506390000000     0.442900000000    -0.530116   
O251     O      0.537410000000     0.556720000000     0.488500000000    -0.631415   
O252     O      0.536010000000     0.520390000000     0.449630000000    -0.474982   
O253     O      0.572380000000     0.528500000000     0.529740000000    -0.495383   
O254     O      0.465760000000     0.468070000000     0.465810000000    -0.631223   
O255     O      0.570010000000     0.491670000000     0.490010000000    -0.62339    
O256     O      0.468880000000     0.504220000000     0.505550000000    -0.493747   
Zr1      Zr     0.091380000000     0.012700000000     0.986010000000     1.39106    
Zr2      Zr     0.017390000000     0.040180000000     0.956450000000     1.37494    
Zr3      Zr     0.026610000000     0.950280000000     0.045630000000     1.37552    
Zr4      Zr     0.952850000000     0.978440000000     0.016400000000     1.36707    
Zr5      Zr     0.050600000000     0.042590000000     0.036210000000     1.37251    
Zr6      Zr     0.994270000000     0.948340000000     0.966220000000     1.3747     
Zr7      Zr     0.986080000000     0.929040000000     0.507000000000     1.38587    
Zr8      Zr     0.979040000000     0.996370000000     0.448660000000     1.38384    
Zr9      Zr     0.058880000000     0.999800000000     0.553610000000     1.37743    
Zr10     Zr     0.052170000000     0.067460000000     0.495460000000     1.38489    
Zr11     Zr     0.071020000000     0.000860000000     0.473670000000     1.36873    
Zr12     Zr     0.966860000000     0.995780000000     0.528460000000     1.36949    
Zr13     Zr     0.054330000000     0.467400000000     0.039230000000     1.38551    
Zr14     Zr     0.952060000000     0.441610000000     0.016250000000     1.39097    
Zr15     Zr     0.086620000000     0.545190000000     0.981480000000     1.37106    
Zr16     Zr     0.983410000000     0.520150000000     0.958690000000     1.38232    
Zr17     Zr     0.017820000000     0.457380000000     0.959840000000     1.3709     
Zr18     Zr     0.019870000000     0.530010000000     0.037310000000     1.36783    
Zr19     Zr     0.001350000000     0.453410000000     0.545860000000     1.37915    
Zr20     Zr     0.941460000000     0.469460000000     0.480690000000     1.38484    
Zr21     Zr     0.089460000000     0.526590000000     0.511760000000     1.36482    
Zr22     Zr     0.028900000000     0.542270000000     0.446490000000     1.37885    
Zr23     Zr     0.020330000000     0.455410000000     0.467540000000     1.36536    
Zr24     Zr     0.010590000000     0.540480000000     0.524930000000     1.36714    
Zr25     Zr     0.477800000000     0.988180000000     0.947140000000     1.38035    
Zr26     Zr     0.488690000000     0.927310000000     0.010260000000     1.3879     
Zr27     Zr     0.548510000000     0.064730000000     0.988760000000     1.37715    
Zr28     Zr     0.559590000000     0.004230000000     0.052210000000     1.3829     
Zr29     Zr     0.465330000000     0.993900000000     0.025810000000     1.36397    
Zr30     Zr     0.571710000000     0.998110000000     0.973580000000     1.36743    
Zr31     Zr     0.506700000000     0.036830000000     0.456250000000     1.37851    
Zr32     Zr     0.447040000000     0.975300000000     0.518620000000     1.38682    
Zr33     Zr     0.582830000000     0.010590000000     0.481170000000     1.3629     
Zr34     Zr     0.523490000000     0.949530000000     0.543930000000     1.37643    
Zr35     Zr     0.545390000000     0.041040000000     0.534440000000     1.36728    
Zr36     Zr     0.484200000000     0.945010000000     0.465340000000     1.37014    
Zr37     Zr     0.508800000000     0.455360000000     0.047590000000     1.38388    
Zr38     Zr     0.445010000000     0.471200000000     0.985750000000     1.37733    
Zr39     Zr     0.594510000000     0.525800000000     0.008910000000     1.36766    
Zr40     Zr     0.530200000000     0.541130000000     0.946670000000     1.38328    
Zr41     Zr     0.520050000000     0.453990000000     0.967880000000     1.36735    
Zr42     Zr     0.519200000000     0.543050000000     0.025940000000     1.36754    
Zr43     Zr     0.553150000000     0.470390000000     0.537890000000     1.38432    
Zr44     Zr     0.451290000000     0.446780000000     0.514410000000     1.38511    
Zr45     Zr     0.587820000000     0.549410000000     0.481260000000     1.36501    
Zr46     Zr     0.485240000000     0.526310000000     0.457850000000     1.38448    
Zr47     Zr     0.517080000000     0.461950000000     0.458370000000     1.37631    
Zr48     Zr     0.520680000000     0.534180000000     0.536790000000     1.37203    


