data_structure

_audit_creation_method RASPA-1.0
_audit_creation_date 2023-6-5
_audit_author_name 'Poobodin Mano'

_cell_length_a    27.4938
_cell_length_b    27.4756
_cell_length_c    27.6063
_cell_angle_alpha 89.2565
_cell_angle_beta  89.2563
_cell_angle_gamma 89.2563
_cell_volume      20848.8

_symmetry_cell_setting          triclinic
_symmetry_space_group_name_Hall 'P 1'
_symmetry_space_group_name_H-M  'P 1'
_symmetry_Int_Tables_number     1

_symmetry_equiv_pos_as_xyz 'x,y,z'

loop_
_atom_site_label
_atom_site_type_symbol
_atom_site_fract_x
_atom_site_fract_y
_atom_site_fract_z
_atom_site_charge
C1       C      0.857970000000     0.973030000000     0.356120000000     0.385098   
C2       C      0.981180000000     0.100670000000     0.604760000000     0.376775   
C3       C      0.968790000000     0.096980000000     0.351530000000     0.386976   
C4       C      0.862830000000     0.972140000000     0.608650000000     0.392683   
C5       C      0.978230000000     0.859920000000     0.607450000000     0.393953   
C6       C      0.098710000000     0.983120000000     0.352150000000     0.390437   
C7       C      0.103710000000     0.980530000000     0.602430000000     0.380637   
C8       C      0.991680000000     0.857910000000     0.354600000000     0.386354   
C9       C      0.969650000000     0.356180000000     0.102170000000     0.398822   
C10      C      0.868310000000     0.613420000000     0.969630000000     0.389741   
C11      C      0.855210000000     0.359630000000     0.987130000000     0.386755   
C12      C      0.981560000000     0.607810000000     0.099300000000     0.381572   
C13      C      0.108330000000     0.599810000000     0.976290000000     0.382655   
C14      C      0.978960000000     0.352030000000     0.861360000000     0.379436   
C15      C      0.988960000000     0.606130000000     0.859660000000     0.392113   
C16      C      0.094010000000     0.346610000000     0.985570000000     0.393701   
C17      C      0.602230000000     0.106070000000     0.980490000000     0.388904   
C18      C      0.351850000000     0.970160000000     0.097870000000     0.388419   
C19      C      0.604840000000     0.984680000000     0.103430000000     0.378436   
C20      C      0.350290000000     0.095510000000     0.983070000000     0.391903   
C21      C      0.357500000000     0.980810000000     0.857190000000     0.377544   
C22      C      0.613730000000     0.864720000000     0.986600000000     0.386951   
C23      C      0.360560000000     0.854300000000     0.977920000000     0.383974   
C24      C      0.611690000000     0.980720000000     0.864160000000     0.391073   
C25      C      0.648850000000     0.786380000000     0.008210000000     0.0522688  
C26      C      0.694810000000     0.845280000000     0.964030000000     0.0682522  
C27      C      0.686160000000     0.752180000000     0.001250000000    -0.0682439  
C28      C      0.753030000000     0.679310000000     0.956170000000    -0.0854932  
C29      C      0.732960000000     0.811860000000     0.957570000000    -0.0783989  
C30      C      0.766310000000     0.726750000000     0.967380000000     0.0393804  
C31      C      0.728070000000     0.764300000000     0.975040000000     0.0304576  
C32      C      0.787830000000     0.642260000000     0.955870000000     0.0720292  
C33      C      0.849660000000     0.698490000000     0.973690000000     0.0722423  
C34      C      0.815450000000     0.736570000000     0.974760000000    -0.0849781  
C35      C      0.631510000000     0.186840000000     0.958470000000     0.0567423  
C36      C      0.680180000000     0.131730000000     0.004590000000     0.077056   
C37      C      0.667060000000     0.222700000000     0.963150000000    -0.0673783  
C38      C      0.735310000000     0.301560000000     0.992760000000    -0.0817564  
C39      C      0.716120000000     0.166960000000     0.009320000000    -0.0749252  
C40      C      0.747960000000     0.251820000000     0.992090000000     0.0398738  
C41      C      0.709760000000     0.213480000000     0.988860000000     0.0337882  
C42      C      0.771420000000     0.337060000000     0.991650000000     0.0726777  
C43      C      0.832700000000     0.275850000000     0.992530000000     0.0788509  
C44      C      0.797580000000     0.239430000000     0.992620000000    -0.0783014  
C45      C      0.190760000000     0.625730000000     0.956020000000     0.0539325  
C46      C      0.133200000000     0.680480000000     0.991310000000     0.0686136  
C47      C      0.226620000000     0.661650000000     0.958440000000    -0.0661611  
C48      C      0.242140000000     0.794750000000     0.965830000000    -0.0775885  
C49      C      0.168160000000     0.716950000000     0.992960000000    -0.0798949  
C50      C      0.253710000000     0.746220000000     0.977390000000     0.0386878  
C51      C      0.215760000000     0.707700000000     0.976850000000     0.0327307  
C52      C      0.278300000000     0.830130000000     0.965550000000     0.0771698  
C53      C      0.337550000000     0.770980000000     0.987520000000     0.0742788  
C54      C      0.302270000000     0.734650000000     0.988190000000    -0.081776   
C55      C      0.119590000000     0.266110000000     0.011740000000     0.0566924  
C56      C      0.168690000000     0.314700000000     0.958780000000     0.075033   
C57      C      0.155240000000     0.229240000000     0.010580000000    -0.0682263  
C58      C      0.227560000000     0.148800000000     0.988610000000    -0.0800866  
C59      C      0.204120000000     0.278470000000     0.956800000000    -0.0812219  
C60      C      0.237730000000     0.198510000000     0.985230000000     0.039984   
C61      C      0.198160000000     0.235500000000     0.983610000000     0.033688   
C62      C      0.265610000000     0.114870000000     0.989710000000     0.0787622  
C63      C      0.323350000000     0.178000000000     0.983940000000     0.0748499  
C64      C      0.286370000000     0.212880000000     0.984050000000    -0.0847357  
C65      C      0.693450000000     0.000320000000     0.837120000000     0.0553549  
C66      C      0.641470000000     0.951690000000     0.789730000000     0.0723476  
C67      C      0.730410000000     0.994900000000     0.802040000000    -0.072704   
C68      C      0.809380000000     0.964880000000     0.730830000000    -0.0853419  
C69      C      0.677610000000     0.946050000000     0.754590000000    -0.0826498  
C70      C      0.759610000000     0.966800000000     0.720660000000     0.0383303  
C71      C      0.722510000000     0.968270000000     0.760120000000     0.0329791  
C72      C      0.843510000000     0.966640000000     0.693020000000     0.0735878  
C73      C      0.780320000000     0.970380000000     0.635370000000     0.0738843  
C74      C      0.745360000000     0.969420000000     0.672210000000    -0.085563   
C75      C      0.271590000000     0.981180000000     0.833610000000     0.0495016  
C76      C      0.334420000000     0.980940000000     0.774080000000     0.0632783  
C77      C      0.237060000000     0.975310000000     0.797190000000    -0.0653884  
C78      C      0.163240000000     0.992560000000     0.719960000000    -0.0847101  
C79      C      0.299930000000     0.980210000000     0.737040000000    -0.076255   
C80      C      0.211560000000     0.977800000000     0.709480000000     0.0377856  
C81      C      0.250100000000     0.977050000000     0.748090000000     0.0292911  
C82      C      0.127550000000     0.991950000000     0.684300000000     0.0696684  
C83      C      0.186040000000     0.966340000000     0.626190000000     0.0681893  
C84      C      0.222220000000     0.964350000000     0.661510000000    -0.0833768  
C85      C      0.265620000000     0.967290000000     0.120020000000     0.0524126  
C86      C      0.326500000000     0.971150000000     0.180080000000     0.0664951  
C87      C      0.229860000000     0.975370000000     0.155490000000    -0.0673635  
C88      C      0.157420000000     0.961300000000     0.235270000000    -0.0847866  
C89      C      0.291160000000     0.974530000000     0.216350000000    -0.0797764  
C90      C      0.203560000000     0.981200000000     0.242350000000     0.0390954  
C91      C      0.242070000000     0.977850000000     0.204260000000     0.0311691  
C92      C      0.122090000000     0.964100000000     0.271620000000     0.0773706  
C93      C      0.177360000000     0.003460000000     0.322990000000     0.0732037  
C94      C      0.212790000000     0.003370000000     0.286640000000    -0.0855853  
C95      C      0.830320000000     0.950260000000     0.276230000000     0.0614611  
C96      C      0.779790000000     0.996900000000     0.329050000000     0.0682381  
C97      C      0.795120000000     0.955000000000     0.239770000000    -0.0628022  
C98      C      0.663500000000     0.980530000000     0.222640000000    -0.0823353  
C99      C      0.744050000000     0.001230000000     0.293610000000    -0.075609   
C100     C      0.712960000000     0.983370000000     0.210030000000     0.0380958  
C101     C      0.751430000000     0.980510000000     0.248030000000     0.0311935  
C102     C      0.628010000000     0.981590000000     0.186700000000     0.0682427  
C103     C      0.688730000000     0.988600000000     0.125560000000     0.0696279  
C104     C      0.725180000000     0.987790000000     0.160650000000    -0.08168    
C105     C      0.958100000000     0.270230000000     0.835170000000     0.052898   
C106     C      0.001370000000     0.324330000000     0.783050000000     0.0678035  
C107     C      0.960950000000     0.234180000000     0.799190000000    -0.0651551  
C108     C      0.986970000000     0.155680000000     0.725850000000    -0.0820151  
C109     C      0.004030000000     0.289180000000     0.746780000000    -0.0774506  
C110     C      0.984090000000     0.205720000000     0.714920000000     0.0368975  
C111     C      0.983630000000     0.243250000000     0.754270000000     0.0299889  
C112     C      0.985810000000     0.121200000000     0.688800000000     0.0687848  
C113     C      0.979930000000     0.183980000000     0.629700000000     0.066873   
C114     C      0.980580000000     0.219380000000     0.665870000000    -0.0820603  
C115     C      0.949490000000     0.784340000000     0.641900000000     0.0523691  
C116     C      0.003130000000     0.834860000000     0.685200000000     0.0690067  
C117     C      0.953990000000     0.748400000000     0.677840000000    -0.0700451  
C118     C      0.991550000000     0.667850000000     0.741560000000    -0.0859564  
C119     C      0.007620000000     0.799720000000     0.721730000000    -0.0798636  
C120     C      0.988630000000     0.716740000000     0.755020000000     0.0398216  
C121     C      0.983800000000     0.755440000000     0.717620000000     0.0302744  
C122     C      0.992230000000     0.631400000000     0.776970000000     0.0748748  
C123     C      0.989580000000     0.690570000000     0.838830000000     0.0739547  
C124     C      0.988400000000     0.727980000000     0.804270000000    -0.0858606  
C125     C      0.957410000000     0.639210000000     0.177910000000     0.0492358  
C126     C      0.005860000000     0.686410000000     0.123650000000     0.0684417  
C127     C      0.962840000000     0.674440000000     0.213810000000    -0.0670689  
C128     C      0.995960000000     0.739660000000     0.293320000000    -0.0808138  
C129     C      0.011270000000     0.722250000000     0.158930000000    -0.0770503  
C130     C      0.995170000000     0.753570000000     0.244150000000     0.0394621  
C131     C      0.990380000000     0.716210000000     0.205200000000     0.0312878  
C132     C      0.995890000000     0.774810000000     0.329610000000     0.074339   
C133     C      0.997860000000     0.837720000000     0.270430000000     0.077077   
C134     C      0.997120000000     0.803510000000     0.233150000000    -0.0778259  
C135     C      0.967430000000     0.120360000000     0.265450000000     0.051687   
C136     C      0.959510000000     0.179350000000     0.327550000000     0.0666014  
C137     C      0.969460000000     0.158030000000     0.230840000000    -0.0681432  
C138     C      0.946680000000     0.238480000000     0.160470000000    -0.082519   
C139     C      0.958100000000     0.216810000000     0.293340000000    -0.0803781  
C140     C      0.964270000000     0.246210000000     0.207210000000     0.0421689  
C141     C      0.964140000000     0.206570000000     0.244320000000     0.0321116  
C142     C      0.949060000000     0.275480000000     0.125650000000     0.0839729  
C143     C      0.982610000000     0.328800000000     0.182870000000     0.0799524  
C144     C      0.982450000000     0.292130000000     0.218030000000    -0.0857618  
H1       H      0.903430000000     0.051550000000     0.549870000000     0.210349   
H2       H      0.050650000000     0.056690000000     0.404450000000     0.207003   
H3       H      0.058360000000     0.905930000000     0.547730000000     0.21069    
H4       H      0.906940000000     0.900020000000     0.410270000000     0.218845   
H5       H      0.061270000000     0.138550000000     0.467060000000     0.12673    
H6       H      0.140630000000     0.074490000000     0.475640000000     0.189377   
H7       H      0.135010000000     0.901410000000     0.443310000000     0.149219   
H8       H      0.082200000000     0.831640000000     0.484540000000     0.202485   
H9       H      0.895480000000     0.823770000000     0.472570000000     0.138384   
H10      H      0.817990000000     0.884780000000     0.484470000000     0.201115   
H11      H      0.826870000000     0.060260000000     0.454100000000     0.149814   
H12      H      0.895330000000     0.144650000000     0.513440000000     0.202711   
H13      H      0.042650000000     0.786680000000     0.494220000000     0.216286   
H14      H      0.779240000000     0.932280000000     0.483290000000     0.209976   
H15      H      0.888620000000     0.139890000000     0.453570000000     0.206248   
H16      H      0.180280000000     0.027720000000     0.476260000000     0.2071     
H17      H      0.907260000000     0.554380000000     0.051530000000     0.223771   
H18      H      0.903640000000     0.410860000000     0.904990000000     0.213849   
H19      H      0.060640000000     0.544000000000     0.905320000000     0.222625   
H20      H      0.050910000000     0.404080000000     0.057740000000     0.21862    
H21      H      0.826080000000     0.482650000000     0.890020000000     0.129347   
H22      H      0.894120000000     0.476800000000     0.815910000000     0.191211   
H23      H      0.064150000000     0.444580000000     0.825420000000     0.148679   
H24      H      0.128250000000     0.470960000000     0.884000000000     0.214238   
H25      H      0.133820000000     0.466930000000     0.071260000000     0.128993   
H26      H      0.064570000000     0.487980000000     0.147800000000     0.197125   
H27      H      0.891120000000     0.450290000000     0.125810000000     0.152007   
H28      H      0.812520000000     0.526410000000     0.053060000000     0.212309   
H29      H      0.169840000000     0.449260000000     0.922470000000     0.223939   
H30      H      0.017220000000     0.469980000000     0.181960000000     0.219897   
H31      H      0.814390000000     0.466180000000     0.062580000000     0.211621   
H32      H      0.941910000000     0.486310000000     0.778950000000     0.209176   
H33      H      0.407570000000     0.051960000000     0.052550000000     0.210427   
H34      H      0.555430000000     0.907720000000     0.059150000000     0.22029    
H35      H      0.418350000000     0.901960000000     0.906370000000     0.209988   
H36      H      0.553060000000     0.056950000000     0.904300000000     0.226183   
H37      H      0.492610000000     0.895360000000     0.141380000000     0.135102   
H38      H      0.486270000000     0.820500000000     0.077680000000     0.205837   
H39      H      0.519560000000     0.831230000000     0.899540000000     0.14959    
H40      H      0.455350000000     0.899010000000     0.814690000000     0.201321   
H41      H      0.486360000000     0.066440000000     0.821530000000     0.134673   
H42      H      0.475730000000     0.138100000000     0.882870000000     0.204705   
H43      H      0.498780000000     0.130770000000     0.062840000000     0.148703   
H44      H      0.439420000000     0.058540000000     0.145040000000     0.200592   
H45      H      0.515680000000     0.894180000000     0.820780000000     0.204584   
H46      H      0.452530000000     0.174850000000     0.925270000000     0.225218   
H47      H      0.499440000000     0.067170000000     0.140460000000     0.204752   
H48      H      0.468220000000     0.782760000000     0.034670000000     0.225626   
H49      H      0.775420000000     0.605920000000     0.948110000000     0.0334234  
H50      H      0.699240000000     0.881130000000     0.947750000000     0.0386735  
H51      H      0.827110000000     0.772900000000     0.983460000000     0.0557255  
H52      H      0.765270000000     0.822770000000     0.937580000000     0.0546815  
H53      H      0.715540000000     0.670510000000     0.948900000000     0.0593976  
H54      H      0.683070000000     0.716160000000     0.017350000000     0.0638024  
H55      H      0.887150000000     0.707210000000     0.981120000000     0.0311543  
H56      H      0.646280000000     0.741900000000     0.108200000000     0.15351    
H57      H      0.759600000000     0.374860000000     0.991300000000     0.0317041  
H58      H      0.686630000000     0.096790000000     0.022290000000     0.0385573  
H59      H      0.809640000000     0.201800000000     0.991770000000     0.0628957  
H60      H      0.748300000000     0.157750000000     0.029850000000     0.0568777  
H61      H      0.697600000000     0.313360000000     0.993920000000     0.0581231  
H62      H      0.662140000000     0.257520000000     0.945020000000     0.0638472  
H63      H      0.870450000000     0.264090000000     0.992910000000     0.048891   
H64      H      0.623580000000     0.234650000000     0.858940000000     0.155841   
H65      H      0.267510000000     0.866830000000     0.955750000000     0.0536928  
H66      H      0.097320000000     0.689410000000     0.005690000000     0.0317062  
H67      H      0.313050000000     0.697760000000     0.997770000000     0.0567358  
H68      H      0.157970000000     0.752000000000     0.007750000000     0.057381   
H69      H      0.205440000000     0.805410000000     0.956130000000     0.0587073  
H70      H      0.262700000000     0.654460000000     0.943910000000     0.0594258  
H71      H      0.374390000000     0.760160000000     0.996700000000     0.0288635  
H72      H      0.284520000000     0.571370000000     0.909300000000     0.154471   
H73      H      0.256090000000     0.076980000000     0.992950000000     0.0567554  
H74      H      0.174900000000     0.347410000000     0.937200000000     0.0253931  
H75      H      0.296130000000     0.250950000000     0.983300000000     0.0566356  
H76      H      0.236100000000     0.284360000000     0.934270000000     0.0558107  
H77      H      0.190520000000     0.135890000000     0.989680000000     0.0635261  
H78      H      0.150700000000     0.196760000000     0.032660000000     0.0621055  
H79      H      0.360370000000     0.191110000000     0.982020000000     0.0304758  
H80      H      0.104730000000     0.221780000000     0.115370000000     0.151787   
H81      H      0.881640000000     0.965310000000     0.702530000000     0.031713   
H82      H      0.607460000000     0.933150000000     0.783910000000     0.0237873  
H83      H      0.707370000000     0.972020000000     0.662530000000     0.0547996  
H84      H      0.670190000000     0.924280000000     0.723170000000     0.0534328  
H85      H      0.822050000000     0.962060000000     0.767750000000     0.0562879  
H86      H      0.764450000000     0.013680000000     0.806080000000     0.0628158  
H87      H      0.767340000000     0.972920000000     0.598490000000     0.029082   
H88      H      0.743310000000     0.100450000000     0.846060000000     0.155398   
H89      H      0.091020000000     0.003510000000     0.694530000000     0.0310501  
H90      H      0.372280000000     0.982010000000     0.762690000000     0.0321568  
H91      H      0.258130000000     0.951730000000     0.650830000000     0.0521465  
H92      H      0.312930000000     0.982550000000     0.699980000000     0.0512223  
H93      H      0.152360000000     0.005580000000     0.755280000000     0.0583189  
H94      H      0.199390000000     0.971200000000     0.807680000000     0.0558023  
H95      H      0.196380000000     0.955610000000     0.589780000000     0.028826   
H96      H      0.170640000000     0.979830000000     0.895090000000     0.152495   
H97      H      0.087150000000     0.947730000000     0.264900000000     0.0401103  
H98      H      0.363940000000     0.970550000000     0.191970000000     0.032197   
H99      H      0.247110000000     0.020650000000     0.293540000000     0.0522409  
H100     H      0.302750000000     0.974420000000     0.253660000000     0.0520298  
H101     H      0.148570000000     0.942360000000     0.202500000000     0.0597697  
H102     H      0.192200000000     0.978150000000     0.144950000000     0.0577977  
H103     H      0.186200000000     0.020500000000     0.356940000000     0.0229676  
H104     H      0.166400000000     0.960870000000     0.058530000000     0.15495    
H105     H      0.590410000000     0.978770000000     0.198590000000     0.0316661  
H106     H      0.772600000000     0.014940000000     0.363190000000     0.0269337  
H107     H      0.762770000000     0.990880000000     0.148960000000     0.0586919  
H108     H      0.711050000000     0.021590000000     0.301850000000     0.0519889  
H109     H      0.652030000000     0.976360000000     0.260110000000     0.0541503  
H110     H      0.800770000000     0.936770000000     0.205600000000     0.060482   
H111     H      0.700180000000     0.991910000000     0.087950000000     0.036668   
H112     H      0.879170000000     0.885310000000     0.190680000000     0.154475   
H113     H      0.988190000000     0.083130000000     0.699430000000     0.0312607  
H114     H      0.018690000000     0.358830000000     0.775150000000     0.0266964  
H115     H      0.977360000000     0.257320000000     0.655200000000     0.0534323  
H116     H      0.022660000000     0.298110000000     0.713100000000     0.0527355  
H117     H      0.990570000000     0.142910000000     0.762910000000     0.0554289  
H118     H      0.943230000000     0.199690000000     0.805290000000     0.0593054  
H119     H      0.976880000000     0.196750000000     0.592530000000     0.0297848  
H120     H      0.905930000000     0.180350000000     0.889210000000     0.155357   
H121     H      0.993890000000     0.594060000000     0.764780000000     0.0294413  
H122     H      0.023960000000     0.867870000000     0.688830000000     0.0287149  
H123     H      0.985820000000     0.765330000000     0.816190000000     0.0542801  
H124     H      0.030840000000     0.806710000000     0.752200000000     0.0531673  
H125     H      0.992930000000     0.657660000000     0.703780000000     0.0582187  
H126     H      0.933120000000     0.715350000000     0.675470000000     0.0627603  
H127     H      0.988440000000     0.700910000000     0.876600000000     0.031447   
H128     H      0.843630000000     0.761970000000     0.647110000000     0.151517   
H129     H      0.995270000000     0.761890000000     0.366880000000     0.0347974  
H130     H      0.024270000000     0.692090000000     0.089080000000     0.0300227  
H131     H      0.996750000000     0.816500000000     0.195970000000     0.0577595  
H132     H      0.032860000000     0.753900000000     0.150130000000     0.0535655  
H133     H      0.996210000000     0.701620000000     0.304060000000     0.0584825  
H134     H      0.943930000000     0.669990000000     0.248170000000     0.0640177  
H135     H      0.999750000000     0.875720000000     0.259880000000     0.0470288  
H136     H      0.855230000000     0.637030000000     0.220450000000     0.155001   
H137     H      0.935280000000     0.267940000000     0.089910000000     0.0417356  
H138     H      0.955550000000     0.190240000000     0.365030000000     0.0304525  
H139     H      0.997440000000     0.299770000000     0.253140000000     0.0549713  
H140     H      0.952200000000     0.253660000000     0.305710000000     0.0531444  
H141     H      0.930730000000     0.204260000000     0.150590000000     0.0622357  
H142     H      0.974710000000     0.149420000000     0.193040000000     0.0629656  
H143     H      0.997460000000     0.363600000000     0.192800000000     0.0259864  
H144     H      0.992530000000     0.062290000000     0.168460000000     0.155614   
N1       N      0.652110000000     0.832230000000     0.987060000000    -0.179715   
N2       N      0.835610000000     0.651390000000     0.966020000000    -0.188869   
N3       N      0.637420000000     0.141560000000     0.980730000000    -0.174457   
N4       N      0.819920000000     0.324430000000     0.990600000000    -0.182955   
N5       N      0.144160000000     0.634710000000     0.974170000000    -0.176599   
N6       N      0.325670000000     0.818670000000     0.976860000000    -0.182035   
N7       N      0.126780000000     0.308820000000     0.985640000000    -0.182566   
N8       N      0.313140000000     0.129190000000     0.985710000000    -0.186002   
N9       N      0.649020000000     0.978100000000     0.830830000000    -0.182064   
N10      N      0.829090000000     0.969640000000     0.645600000000    -0.188709   
N11      N      0.321130000000     0.981240000000     0.822450000000    -0.174475   
N12      N      0.138870000000     0.979500000000     0.637540000000    -0.186695   
N13      N      0.314540000000     0.968810000000     0.131850000000    -0.178832   
N14      N      0.132450000000     0.983910000000     0.315510000000    -0.190892   
N15      N      0.823220000000     0.972910000000     0.320430000000    -0.17568    
N16      N      0.640360000000     0.985160000000     0.138340000000    -0.184891   
N17      N      0.979290000000     0.315340000000     0.827300000000    -0.176669   
N18      N      0.982270000000     0.135070000000     0.640890000000    -0.184844   
N19      N      0.976230000000     0.826510000000     0.644570000000    -0.182656   
N20      N      0.990510000000     0.642570000000     0.825310000000    -0.18899    
N21      N      0.980910000000     0.644230000000     0.133370000000    -0.177601   
N22      N      0.995490000000     0.823690000000     0.318430000000    -0.181503   
N23      N      0.964980000000     0.131260000000     0.314610000000    -0.179332   
N24      N      0.966870000000     0.320280000000     0.136800000000    -0.187787   
O1       O      0.843210000000     0.975660000000     0.400930000000    -0.35897    
O2       O      0.903500000000     0.972240000000     0.343410000000    -0.322227   
O3       O      0.980630000000     0.115670000000     0.559890000000    -0.353765   
O4       O      0.980850000000     0.054940000000     0.617210000000    -0.347343   
O5       O      0.969920000000     0.112310000000     0.395820000000    -0.360544   
O6       O      0.972350000000     0.051610000000     0.340830000000    -0.337371   
O7       O      0.847250000000     0.970720000000     0.564590000000    -0.353062   
O8       O      0.908230000000     0.976040000000     0.619650000000    -0.351928   
O9       O      0.822260000000     0.042500000000     0.485220000000    -0.338461   
O10      O      0.812160000000     0.919530000000     0.483460000000    -0.513028   
O11      O      0.906380000000     0.131970000000     0.482660000000    -0.514055   
O12      O      0.027920000000     0.151610000000     0.472390000000    -0.325319   
O13      O      0.922650000000     0.031890000000     0.431640000000    -0.46947    
O14      O      0.923830000000     0.032180000000     0.528620000000    -0.610821   
O15      O      0.975750000000     0.844270000000     0.563470000000    -0.341587   
O16      O      0.984310000000     0.905070000000     0.618430000000    -0.353177   
O17      O      0.114150000000     0.987670000000     0.395870000000    -0.371829   
O18      O      0.053550000000     0.977520000000     0.341170000000    -0.341287   
O19      O      0.117950000000     0.980490000000     0.557510000000    -0.35515    
O20      O      0.058240000000     0.981320000000     0.615810000000    -0.347393   
O21      O      0.990540000000     0.842860000000     0.399440000000    -0.346948   
O22      O      0.987970000000     0.903430000000     0.342150000000    -0.33066    
O23      O      0.049080000000     0.820710000000     0.488040000000    -0.515602   
O24      O      0.928460000000     0.809030000000     0.474540000000    -0.307929   
O25      O      0.139700000000     0.916940000000     0.475050000000    -0.341482   
O26      O      0.147120000000     0.039850000000     0.476320000000    -0.512057   
O27      O      0.037640000000     0.925600000000     0.527110000000    -0.613037   
O28      O      0.036960000000     0.925110000000     0.431270000000    -0.472565   
O29      O      0.927600000000     0.922070000000     0.533750000000    -0.463178   
O30      O      0.032310000000     0.035890000000     0.426240000000    -0.622619   
O31      O      0.925930000000     0.920850000000     0.430410000000    -0.631549   
O32      O      0.034790000000     0.037290000000     0.529620000000    -0.476727   
O33      O      0.976220000000     0.400220000000     0.116460000000    -0.369087   
O34      O      0.966920000000     0.343950000000     0.057170000000    -0.335546   
O35      O      0.851560000000     0.569590000000     0.967780000000    -0.359367   
O36      O      0.913760000000     0.623170000000     0.975600000000    -0.352129   
O37      O      0.841730000000     0.405120000000     0.984000000000    -0.353241   
O38      O      0.900290000000     0.345500000000     0.986280000000    -0.334709   
O39      O      0.979460000000     0.563120000000     0.114640000000    -0.337438   
O40      O      0.985790000000     0.619710000000     0.053730000000    -0.344729   
O41      O      0.907230000000     0.481660000000     0.131550000000    -0.309697   
O42      O      0.030690000000     0.479380000000     0.150770000000    -0.513325   
O43      O      0.824480000000     0.494500000000     0.044120000000    -0.513671   
O44      O      0.811390000000     0.485990000000     0.922770000000    -0.323038   
O45      O      0.922710000000     0.435330000000     0.034680000000    -0.47153    
O46      O      0.927000000000     0.532050000000     0.032750000000    -0.613897   
O47      O      0.121200000000     0.554250000000     0.978130000000    -0.334337   
O48      O      0.063240000000     0.614350000000     0.977730000000    -0.346773   
O49      O      0.982230000000     0.396730000000     0.845780000000    -0.35889    
O50      O      0.976520000000     0.340610000000     0.907050000000    -0.327109   
O51      O      0.986040000000     0.561570000000     0.845100000000    -0.35428    
O52      O      0.989890000000     0.618230000000     0.904720000000    -0.353311   
O53      O      0.111230000000     0.390270000000     0.983650000000    -0.359386   
O54      O      0.048200000000     0.336870000000     0.985740000000    -0.336143   
O55      O      0.138280000000     0.463950000000     0.916760000000    -0.504653   
O56      O      0.149320000000     0.471150000000     0.038930000000    -0.313766   
O57      O      0.050310000000     0.477960000000     0.822950000000    -0.336862   
O58      O      0.928670000000     0.481250000000     0.811190000000    -0.514257   
O59      O      0.039270000000     0.524620000000     0.925550000000    -0.614646   
O60      O      0.035050000000     0.427840000000     0.927030000000    -0.470016   
O61      O      0.038560000000     0.529520000000     0.036260000000    -0.480641   
O62      O      0.924070000000     0.430990000000     0.924450000000    -0.629288   
O63      O      0.032510000000     0.425910000000     0.037050000000    -0.627382   
O64      O      0.929580000000     0.535020000000     0.923150000000    -0.47118    
O65      O      0.557050000000     0.119430000000     0.976680000000    -0.340801   
O66      O      0.615990000000     0.060870000000     0.985020000000    -0.332657   
O67      O      0.396170000000     0.970390000000     0.113420000000    -0.358136   
O68      O      0.341350000000     0.973580000000     0.052500000000    -0.332904   
O69      O      0.559710000000     0.981870000000     0.117620000000    -0.35771    
O70      O      0.618080000000     0.986210000000     0.058150000000    -0.343725   
O71      O      0.394220000000     0.111660000000     0.980580000000    -0.360722   
O72      O      0.339800000000     0.049690000000     0.982950000000    -0.332084   
O73      O      0.474330000000     0.141740000000     0.038920000000    -0.322495   
O74      O      0.468400000000     0.144580000000     0.916510000000    -0.506482   
O75      O      0.470980000000     0.048810000000     0.132430000000    -0.516851   
O76      O      0.480750000000     0.927330000000     0.153140000000    -0.322278   
O77      O      0.525680000000     0.037380000000     0.035110000000    -0.473825   
O78      O      0.429660000000     0.032930000000     0.032710000000    -0.612442   
O79      O      0.402680000000     0.983350000000     0.842730000000    -0.350954   
O80      O      0.345480000000     0.976580000000     0.902510000000    -0.328259   
O81      O      0.569940000000     0.847710000000     0.987900000000    -0.343747   
O82      O      0.623390000000     0.910630000000     0.982960000000    -0.346837   
O83      O      0.405710000000     0.840840000000     0.982470000000    -0.351872   
O84      O      0.346710000000     0.899540000000     0.974650000000    -0.329047   
O85      O      0.567580000000     0.978160000000     0.848300000000    -0.357411   
O86      O      0.622310000000     0.983620000000     0.909430000000    -0.33839    
O87      O      0.485270000000     0.910710000000     0.828050000000    -0.515479   
O88      O      0.487430000000     0.033020000000     0.808560000000    -0.321087   
O89      O      0.492820000000     0.819470000000     0.920820000000    -0.326794   
O90      O      0.480950000000     0.813870000000     0.043890000000    -0.505804   
O91      O      0.437610000000     0.922650000000     0.926420000000    -0.615489   
O92      O      0.533960000000     0.926450000000     0.928480000000    -0.46959    
O93      O      0.428150000000     0.033500000000     0.922510000000    -0.474105   
O94      O      0.534180000000     0.926520000000     0.038330000000    -0.628503   
O95      O      0.532340000000     0.036660000000     0.924320000000    -0.627929   
O96      O      0.430100000000     0.922690000000     0.036720000000    -0.472206   
O97      O      0.556050000000     0.747100000000     0.018710000000    -0.162222   
O98      O      0.622390000000     0.725440000000     0.087670000000    -0.268629   
O99      O      0.583660000000     0.815970000000     0.082460000000    -0.193462   
O100     O      0.534490000000     0.217430000000     0.950010000000    -0.161428   
O101     O      0.598760000000     0.248250000000     0.881490000000    -0.269462   
O102     O      0.571580000000     0.154340000000     0.883500000000    -0.181147   
O103     O      0.162450000000     0.561280000000     0.884030000000    -0.173707   
O104     O      0.257400000000     0.582960000000     0.888700000000    -0.269884   
O105     O      0.216370000000     0.526250000000     0.959030000000    -0.169567   
O106     O      0.019340000000     0.250530000000     0.026300000000    -0.141986   
O107     O      0.081510000000     0.210340000000     0.091000000000    -0.271137   
O108     O      0.067560000000     0.307860000000     0.088660000000    -0.186129   
O109     O      0.711510000000     0.015310000000     0.936190000000    -0.154459   
O110     O      0.753720000000     0.076140000000     0.870760000000    -0.269623   
O111     O      0.656700000000     0.081470000000     0.886540000000    -0.170949   
O112     O      0.274190000000     0.048310000000     0.907160000000    -0.152329   
O113     O      0.186990000000     0.010880000000     0.887090000000    -0.270616   
O114     O      0.255160000000     0.953920000000     0.930930000000    -0.158454   
O115     O      0.275320000000     0.898100000000     0.047900000000    -0.151702   
O116     O      0.185030000000     0.931290000000     0.068180000000    -0.273163   
O117     O      0.249420000000     0.990630000000     0.022170000000    -0.157564   
O118     O      0.886330000000     0.873300000000     0.314640000000    -0.171783   
O119     O      0.864220000000     0.870390000000     0.220040000000    -0.271517   
O120     O      0.929110000000     0.936390000000     0.251360000000    -0.153047   
O121     O      0.880350000000     0.304050000000     0.891820000000    -0.169685   
O122     O      0.886050000000     0.207640000000     0.876020000000    -0.270973   
O123     O      0.950960000000     0.249570000000     0.935350000000    -0.155904   
O124     O      0.928550000000     0.745070000000     0.551790000000    -0.152797   
O125     O      0.859230000000     0.740920000000     0.622360000000    -0.267611   
O126     O      0.879400000000     0.826920000000     0.578970000000    -0.172511   
O127     O      0.942130000000     0.542600000000     0.208290000000    -0.157416   
O128     O      0.875640000000     0.610990000000     0.235230000000    -0.266519   
O129     O      0.881070000000     0.583070000000     0.141980000000    -0.178558   
O130     O      0.912170000000     0.036140000000     0.262880000000    -0.142875   
O131     O      0.958470000000     0.062790000000     0.180600000000    -0.268568   
O132     O      0.010680000000     0.026650000000     0.255600000000    -0.160167   
S1       S      0.601930000000     0.769060000000     0.049480000000     0.276255   
S2       S      0.583410000000     0.201390000000     0.918180000000     0.278722   
S3       S      0.206690000000     0.573260000000     0.922050000000     0.275241   
S4       S      0.071300000000     0.258840000000     0.054520000000     0.273388   
S5       S      0.703730000000     0.043390000000     0.883330000000     0.273816   
S6       S      0.246900000000     0.998140000000     0.890590000000     0.277904   
S7       S      0.243870000000     0.947120000000     0.063680000000     0.27902    
S8       S      0.878270000000     0.907610000000     0.265590000000     0.276438   
S9       S      0.918950000000     0.257790000000     0.885380000000     0.272864   
S10      S      0.904030000000     0.774810000000     0.597960000000     0.272915   
S11      S      0.913920000000     0.593270000000     0.190610000000     0.279328   
S12      S      0.962700000000     0.060800000000     0.241370000000     0.27862    
Zr1      Zr     0.879800000000     0.974410000000     0.481970000000     1.30128    
Zr2      Zr     0.977400000000     0.079670000000     0.478510000000     1.29298    
Zr3      Zr     0.982330000000     0.877970000000     0.481100000000     1.30651    
Zr4      Zr     0.080550000000     0.983680000000     0.477550000000     1.2973     
Zr5      Zr     0.979040000000     0.977690000000     0.388750000000     1.28684    
Zr6      Zr     0.982010000000     0.979640000000     0.570930000000     1.26203    
Zr7      Zr     0.979970000000     0.481170000000     0.080230000000     1.31209    
Zr8      Zr     0.880580000000     0.485640000000     0.976850000000     1.30037    
Zr9      Zr     0.081520000000     0.474350000000     0.983150000000     1.30949    
Zr10     Zr     0.981860000000     0.479270000000     0.879860000000     1.29525    
Zr11     Zr     0.976500000000     0.388640000000     0.981500000000     1.28748    
Zr12     Zr     0.985880000000     0.571660000000     0.979220000000     1.26519    
Zr13     Zr     0.477080000000     0.080350000000     0.976060000000     1.31257    
Zr14     Zr     0.478750000000     0.978930000000     0.080860000000     1.29821    
Zr15     Zr     0.484030000000     0.980500000000     0.880150000000     1.29446    
Zr16     Zr     0.485960000000     0.879170000000     0.985080000000     1.30846    
Zr17     Zr     0.572920000000     0.983590000000     0.982610000000     1.27773    
Zr18     Zr     0.390050000000     0.976400000000     0.978660000000     1.28142    


