data_structure

_audit_creation_method RASPA-1.0
_audit_creation_date 2023-5-9
_audit_author_name 'Poobodin Mano'

_cell_length_a    43.5117
_cell_length_b    43.5209
_cell_length_c    43.5146
_cell_angle_alpha 90
_cell_angle_beta  90
_cell_angle_gamma 90
_cell_volume      82402.2

_symmetry_cell_setting          triclinic
_symmetry_space_group_name_Hall 'P 1'
_symmetry_space_group_name_H-M  'P 1'
_symmetry_Int_Tables_number     1

_symmetry_equiv_pos_as_xyz 'x,y,z'

loop_
_atom_site_label
_atom_site_type_symbol
_atom_site_fract_x
_atom_site_fract_y
_atom_site_fract_z
_atom_site_charge
C1       C      0.382020000000     0.959020000000     0.128390000000     0.327894   
C2       C      0.458840000000     0.033940000000     0.288020000000     0.327529   
C3       C      0.457650000000     0.033910000000     0.128320000000     0.325769   
C4       C      0.382090000000     0.956250000000     0.288110000000     0.329117   
C5       C      0.957090000000     0.382310000000     0.288090000000     0.327552   
C6       C      0.033640000000     0.456980000000     0.128320000000     0.327345   
C7       C      0.033690000000     0.460120000000     0.288060000000     0.328905   
C8       C      0.957910000000     0.382200000000     0.128380000000     0.32589    
C9       C      0.033740000000     0.128290000000     0.958300000000     0.327202   
C10      C      0.956740000000     0.287920000000     0.034030000000     0.327765   
C11      C      0.958260000000     0.128230000000     0.034010000000     0.325739   
C12      C      0.033650000000     0.288020000000     0.957160000000     0.328508   
C13      C      0.458810000000     0.287990000000     0.382390000000     0.327678   
C14      C      0.382070000000     0.128230000000     0.457830000000     0.327164   
C15      C      0.382040000000     0.287950000000     0.459450000000     0.328341   
C16      C      0.457670000000     0.128300000000     0.382280000000     0.325733   
C17      C      0.287760000000     0.033900000000     0.958370000000     0.327365   
C18      C      0.127980000000     0.956400000000     0.034020000000     0.327267   
C19      C      0.287670000000     0.959080000000     0.034100000000     0.325905   
C20      C      0.128020000000     0.033930000000     0.957090000000     0.328583   
C21      C      0.128040000000     0.460040000000     0.382370000000     0.327426   
C22      C      0.287710000000     0.382250000000     0.458270000000     0.327202   
C23      C      0.127950000000     0.382340000000     0.459090000000     0.32833    
C24      C      0.287750000000     0.456910000000     0.382420000000     0.326106   
C25      C      0.326930000000     0.304530000000     0.460450000000    -0.00844774 
C26      C      0.358250000000     0.312440000000     0.459350000000    -0.0754077  
C27      C      0.366290000000     0.343740000000     0.457880000000    -0.00797832 
C28      C      0.343520000000     0.366500000000     0.457470000000    -0.00727617 
C29      C      0.312190000000     0.358460000000     0.458520000000    -0.0779952  
C30      C      0.304280000000     0.327170000000     0.460020000000    -0.00886266 
C31      C      0.366350000000     0.072410000000     0.957970000000    -0.00789122 
C32      C      0.358290000000     0.103740000000     0.457830000000    -0.0783033  
C33      C      0.326950000000     0.111660000000     0.457920000000    -0.00974503 
C34      C      0.304310000000     0.089010000000     0.458160000000    -0.00956995 
C35      C      0.312250000000     0.057690000000     0.958330000000    -0.0782534  
C36      C      0.343590000000     0.049640000000     0.958230000000    -0.00788965 
C37      C      0.072130000000     0.366610000000     0.958400000000    -0.00751612 
C38      C      0.103460000000     0.358550000000     0.458720000000    -0.0754387  
C39      C      0.111400000000     0.327230000000     0.458400000000    -0.0080805  
C40      C      0.088760000000     0.304590000000     0.457770000000    -0.00784263 
C41      C      0.057430000000     0.312510000000     0.957490000000    -0.0755457  
C42      C      0.049360000000     0.343840000000     0.957830000000    -0.00739265 
C43      C      0.088830000000     0.111700000000     0.956640000000    -0.0089901  
C44      C      0.057520000000     0.103790000000     0.958100000000    -0.0779746  
C45      C      0.049470000000     0.072480000000     0.959100000000    -0.00752758 
C46      C      0.072230000000     0.049700000000     0.958690000000    -0.00814054 
C47      C      0.103540000000     0.057730000000     0.957240000000    -0.0757574  
C48      C      0.111460000000     0.089040000000     0.956200000000    -0.00822007 
C49      C      0.327000000000     0.454560000000     0.304710000000    -0.0070424  
C50      C      0.358310000000     0.955900000000     0.312620000000    -0.075464   
C51      C      0.366350000000     0.957190000000     0.343930000000    -0.00723658 
C52      C      0.343580000000     0.957350000000     0.366700000000    -0.00779203 
C53      C      0.312260000000     0.456260000000     0.358650000000    -0.0762594  
C54      C      0.304350000000     0.454750000000     0.327350000000    -0.00993035 
C55      C      0.088730000000     0.462860000000     0.304690000000    -0.00661657 
C56      C      0.057460000000     0.460640000000     0.312570000000    -0.0762433  
C57      C      0.049460000000     0.458630000000     0.343850000000    -0.00738376 
C58      C      0.072240000000     0.458610000000     0.366610000000    -0.00801214 
C59      C      0.103520000000     0.460600000000     0.358610000000    -0.0756261  
C60      C      0.111390000000     0.462840000000     0.327340000000    -0.0101768  
C61      C      0.111380000000     0.955140000000     0.089110000000    -0.0103421  
C62      C      0.103470000000     0.956050000000     0.057790000000    -0.0759691  
C63      C      0.072150000000     0.456910000000     0.049730000000    -0.0087828  
C64      C      0.049380000000     0.457040000000     0.072500000000    -0.00771155 
C65      C      0.057420000000     0.456350000000     0.103830000000    -0.0788759  
C66      C      0.088740000000     0.955310000000     0.111760000000    -0.00800249 
C67      C      0.366270000000     0.959560000000     0.072580000000    -0.00732047 
C68      C      0.358220000000     0.959490000000     0.103920000000    -0.0781917  
C69      C      0.326890000000     0.959630000000     0.111860000000    -0.00806914 
C70      C      0.304240000000     0.959640000000     0.089210000000    -0.0104973  
C71      C      0.312160000000     0.959500000000     0.057880000000    -0.0765736  
C72      C      0.343500000000     0.959570000000     0.049820000000    -0.00842494 
C73      C      0.457250000000     0.072480000000     0.366570000000    -0.00818713 
C74      C      0.457860000000     0.103800000000     0.358510000000    -0.0767469  
C75      C      0.958880000000     0.111710000000     0.327190000000    -0.0093904  
C76      C      0.959290000000     0.089050000000     0.304560000000    -0.00867477 
C77      C      0.458680000000     0.057730000000     0.312500000000    -0.076802   
C78      C      0.457640000000     0.049700000000     0.343820000000    -0.00772667 
C79      C      0.958210000000     0.343810000000     0.366680000000    -0.00715911 
C80      C      0.458530000000     0.312490000000     0.358610000000    -0.0761011  
C81      C      0.458290000000     0.304560000000     0.327280000000    -0.00876374 
C82      C      0.457720000000     0.327200000000     0.304640000000    -0.00888346 
C83      C      0.957420000000     0.358520000000     0.312580000000    -0.0755022  
C84      C      0.957690000000     0.366580000000     0.343910000000    -0.00731082 
C85      C      0.956170000000     0.304480000000     0.089150000000    -0.00874224 
C86      C      0.956850000000     0.312410000000     0.057820000000    -0.0763624  
C87      C      0.957930000000     0.343720000000     0.049780000000    -0.00746266 
C88      C      0.958320000000     0.366480000000     0.072550000000    -0.00793853 
C89      C      0.957660000000     0.358430000000     0.103880000000    -0.0762723  
C90      C      0.956590000000     0.327110000000     0.111800000000    -0.00939416 
C91      C      0.457830000000     0.049630000000     0.072480000000    -0.00868448 
C92      C      0.457730000000     0.057690000000     0.103820000000    -0.0774987  
C93      C      0.457880000000     0.089010000000     0.111750000000    -0.00962793 
C94      C      0.958140000000     0.111660000000     0.089110000000    -0.00946433 
C95      C      0.958230000000     0.103730000000     0.057780000000    -0.0770916  
C96      C      0.958090000000     0.072410000000     0.049720000000    -0.0082829  
C97      C      0.382020000000     0.959020000000     0.628390000000     0.327892   
C98      C      0.458840000000     0.033940000000     0.788020000000     0.327518   
C99      C      0.457650000000     0.033910000000     0.628320000000     0.325814   
C100     C      0.382090000000     0.956250000000     0.788110000000     0.329108   
C101     C      0.957090000000     0.382310000000     0.788090000000     0.327542   
C102     C      0.033640000000     0.456980000000     0.628320000000     0.327391   
C103     C      0.033690000000     0.460120000000     0.788060000000     0.32895    
C104     C      0.957910000000     0.382200000000     0.628380000000     0.325944   
C105     C      0.033740000000     0.128290000000     0.458300000000     0.327046   
C106     C      0.956740000000     0.287920000000     0.534030000000     0.32785    
C107     C      0.958260000000     0.128230000000     0.534010000000     0.325813   
C108     C      0.033650000000     0.288020000000     0.457160000000     0.328253   
C109     C      0.458810000000     0.287990000000     0.882390000000     0.327732   
C110     C      0.382070000000     0.128230000000     0.957830000000     0.327591   
C111     C      0.382040000000     0.287950000000     0.959450000000     0.328538   
C112     C      0.457670000000     0.128300000000     0.882280000000     0.325729   
C113     C      0.287760000000     0.033900000000     0.458370000000     0.327216   
C114     C      0.127980000000     0.956400000000     0.534020000000     0.327365   
C115     C      0.287670000000     0.959080000000     0.534100000000     0.325979   
C116     C      0.128020000000     0.033930000000     0.457090000000     0.328315   
C117     C      0.128040000000     0.460040000000     0.882370000000     0.32739    
C118     C      0.287710000000     0.382250000000     0.958270000000     0.327517   
C119     C      0.127950000000     0.382340000000     0.959090000000     0.32854    
C120     C      0.287750000000     0.456910000000     0.882420000000     0.326082   
C121     C      0.326930000000     0.304530000000     0.960450000000    -0.00821747 
C122     C      0.358250000000     0.312440000000     0.959350000000    -0.0750614  
C123     C      0.366290000000     0.343740000000     0.957880000000    -0.00770645 
C124     C      0.343520000000     0.366500000000     0.957480000000    -0.00698121 
C125     C      0.312190000000     0.358460000000     0.958520000000    -0.0776433  
C126     C      0.304280000000     0.327170000000     0.960030000000    -0.00861257 
C127     C      0.366350000000     0.072410000000     0.457970000000    -0.00823592 
C128     C      0.358290000000     0.103740000000     0.957830000000    -0.0780216  
C129     C      0.326950000000     0.111660000000     0.957920000000    -0.00944189 
C130     C      0.304310000000     0.089010000000     0.958160000000    -0.00937618 
C131     C      0.312250000000     0.057690000000     0.458330000000    -0.0786913  
C132     C      0.343590000000     0.049640000000     0.458230000000    -0.008126   
C133     C      0.072120000000     0.366610000000     0.458400000000    -0.00786445 
C134     C      0.103460000000     0.358550000000     0.958720000000    -0.0751267  
C135     C      0.111400000000     0.327230000000     0.958400000000    -0.00782033 
C136     C      0.088760000000     0.304590000000     0.957770000000    -0.0076234  
C137     C      0.057430000000     0.312510000000     0.457490000000    -0.0759711  
C138     C      0.049360000000     0.343840000000     0.457830000000    -0.0076314  
C139     C      0.088830000000     0.111700000000     0.456640000000    -0.00921557 
C140     C      0.057520000000     0.103790000000     0.458090000000    -0.0783938  
C141     C      0.049470000000     0.072480000000     0.459100000000    -0.0077968  
C142     C      0.072230000000     0.049700000000     0.458690000000    -0.00843695 
C143     C      0.103540000000     0.057730000000     0.457250000000    -0.076157   
C144     C      0.111460000000     0.089040000000     0.456200000000    -0.00848202 
C145     C      0.327000000000     0.454560000000     0.804710000000    -0.00704967 
C146     C      0.358310000000     0.955900000000     0.812620000000    -0.0754837  
C147     C      0.366350000000     0.957190000000     0.843930000000    -0.00721475 
C148     C      0.343580000000     0.957350000000     0.866700000000    -0.00781733 
C149     C      0.312260000000     0.456260000000     0.858650000000    -0.0762497  
C150     C      0.304350000000     0.454750000000     0.827350000000    -0.00995926 
C151     C      0.088730000000     0.462860000000     0.804690000000    -0.00656658 
C152     C      0.057460000000     0.460640000000     0.812560000000    -0.0763442  
C153     C      0.049460000000     0.458630000000     0.843850000000    -0.00734517 
C154     C      0.072240000000     0.458610000000     0.866610000000    -0.00805021 
C155     C      0.103520000000     0.460600000000     0.858610000000    -0.0755999  
C156     C      0.111390000000     0.462840000000     0.827340000000    -0.0102347  
C157     C      0.111380000000     0.955140000000     0.589110000000    -0.0103291  
C158     C      0.103470000000     0.956050000000     0.557790000000    -0.0754838  
C159     C      0.072150000000     0.456910000000     0.549730000000    -0.00862685 
C160     C      0.049380000000     0.457040000000     0.572500000000    -0.00741045 
C161     C      0.057420000000     0.456350000000     0.603830000000    -0.0788284  
C162     C      0.088740000000     0.955310000000     0.611760000000    -0.00785005 
C163     C      0.366270000000     0.959560000000     0.572580000000    -0.00701806 
C164     C      0.358220000000     0.959490000000     0.603910000000    -0.0780778  
C165     C      0.326890000000     0.959630000000     0.611860000000    -0.00793688 
C166     C      0.304240000000     0.959640000000     0.589220000000    -0.0105182  
C167     C      0.312160000000     0.959500000000     0.557880000000    -0.0760815  
C168     C      0.343500000000     0.959560000000     0.549820000000    -0.00827309 
C169     C      0.457250000000     0.072480000000     0.866570000000    -0.00820862 
C170     C      0.457860000000     0.103800000000     0.858510000000    -0.0767466  
C171     C      0.958880000000     0.111710000000     0.827190000000    -0.00942164 
C172     C      0.959300000000     0.089050000000     0.804560000000    -0.00867707 
C173     C      0.458680000000     0.057730000000     0.812500000000    -0.0768204  
C174     C      0.457640000000     0.049700000000     0.843820000000    -0.00770757 
C175     C      0.958220000000     0.343810000000     0.866680000000    -0.00718222 
C176     C      0.458530000000     0.312480000000     0.858610000000    -0.0761848  
C177     C      0.458290000000     0.304560000000     0.827280000000    -0.00872963 
C178     C      0.457720000000     0.327200000000     0.804640000000    -0.00892287 
C179     C      0.957420000000     0.358520000000     0.812580000000    -0.0755211  
C180     C      0.957690000000     0.366580000000     0.843910000000    -0.00728956 
C181     C      0.956170000000     0.304480000000     0.589150000000    -0.00874419 
C182     C      0.956850000000     0.312410000000     0.557820000000    -0.0758363  
C183     C      0.957930000000     0.343720000000     0.549770000000    -0.00737429 
C184     C      0.958320000000     0.366480000000     0.572550000000    -0.00759319 
C185     C      0.957670000000     0.358430000000     0.603880000000    -0.0762362  
C186     C      0.956590000000     0.327110000000     0.611800000000    -0.00922503 
C187     C      0.457830000000     0.049630000000     0.572480000000    -0.00838461 
C188     C      0.457730000000     0.057690000000     0.603820000000    -0.0774542  
C189     C      0.457880000000     0.089010000000     0.611750000000    -0.00947866 
C190     C      0.958140000000     0.111660000000     0.589110000000    -0.00945825 
C191     C      0.958230000000     0.103730000000     0.557780000000    -0.0766169  
C192     C      0.958090000000     0.072410000000     0.549720000000    -0.00813125 
C193     C      0.382020000000     0.459020000000     0.128390000000     0.327737   
C194     C      0.458840000000     0.533940000000     0.288020000000     0.327625   
C195     C      0.457650000000     0.533910000000     0.128320000000     0.325832   
C196     C      0.382090000000     0.456250000000     0.288110000000     0.328857   
C197     C      0.957090000000     0.882300000000     0.288090000000     0.327649   
C198     C      0.033640000000     0.956980000000     0.128320000000     0.327671   
C199     C      0.033690000000     0.960120000000     0.288060000000     0.329101   
C200     C      0.957910000000     0.882200000000     0.128380000000     0.325866   
C201     C      0.033740000000     0.628290000000     0.958300000000     0.327273   
C202     C      0.956740000000     0.787920000000     0.034030000000     0.327755   
C203     C      0.958260000000     0.628230000000     0.034010000000     0.325794   
C204     C      0.033650000000     0.788020000000     0.957160000000     0.328527   
C205     C      0.458810000000     0.787990000000     0.382390000000     0.327732   
C206     C      0.382070000000     0.628230000000     0.457830000000     0.327319   
C207     C      0.382040000000     0.787950000000     0.459450000000     0.328431   
C208     C      0.457670000000     0.628300000000     0.382280000000     0.325801   
C209     C      0.287760000000     0.533900000000     0.958370000000     0.327438   
C210     C      0.127980000000     0.456400000000     0.034020000000     0.327008   
C211     C      0.287670000000     0.459080000000     0.034100000000     0.325744   
C212     C      0.128020000000     0.533930000000     0.957090000000     0.328673   
C213     C      0.128040000000     0.960040000000     0.382370000000     0.327615   
C214     C      0.287710000000     0.882250000000     0.458270000000     0.327176   
C215     C      0.127950000000     0.882340000000     0.459090000000     0.328303   
C216     C      0.287750000000     0.956910000000     0.382420000000     0.326427   
C217     C      0.326930000000     0.804530000000     0.460450000000    -0.00843067 
C218     C      0.358250000000     0.812440000000     0.459350000000    -0.0754796  
C219     C      0.366290000000     0.843740000000     0.457880000000    -0.00793504 
C220     C      0.343520000000     0.866500000000     0.457470000000    -0.00731308 
C221     C      0.312190000000     0.858460000000     0.458520000000    -0.0779762  
C222     C      0.304280000000     0.827170000000     0.460020000000    -0.00890379 
C223     C      0.366350000000     0.572410000000     0.957970000000    -0.00758723 
C224     C      0.358290000000     0.603740000000     0.457830000000    -0.0783125  
C225     C      0.326950000000     0.611660000000     0.457920000000    -0.00957074 
C226     C      0.304310000000     0.589010000000     0.458160000000    -0.00957665 
C227     C      0.312250000000     0.557690000000     0.958330000000    -0.0777743  
C228     C      0.343590000000     0.549640000000     0.958230000000    -0.00773592 
C229     C      0.072130000000     0.866610000000     0.958400000000    -0.00762588 
C230     C      0.103460000000     0.858550000000     0.458720000000    -0.0754172  
C231     C      0.111400000000     0.827230000000     0.458400000000    -0.00811942 
C232     C      0.088760000000     0.804590000000     0.457770000000    -0.00783843 
C233     C      0.057430000000     0.812510000000     0.957490000000    -0.0756108  
C234     C      0.049360000000     0.843830000000     0.957830000000    -0.00728867 
C235     C      0.088830000000     0.611700000000     0.956640000000    -0.00882539 
C236     C      0.057520000000     0.603790000000     0.958090000000    -0.0779363  
C237     C      0.049470000000     0.572480000000     0.959100000000    -0.00721639 
C238     C      0.072230000000     0.549700000000     0.958690000000    -0.00798786 
C239     C      0.103540000000     0.557730000000     0.957240000000    -0.0752632  
C240     C      0.111460000000     0.589040000000     0.956200000000    -0.00820904 
C241     C      0.327000000000     0.954560000000     0.304710000000    -0.0068265  
C242     C      0.358310000000     0.455900000000     0.312620000000    -0.075879   
C243     C      0.366350000000     0.457190000000     0.343930000000    -0.00750722 
C244     C      0.343580000000     0.457350000000     0.366700000000    -0.00810782 
C245     C      0.312260000000     0.956260000000     0.358650000000    -0.0759229  
C246     C      0.304350000000     0.954750000000     0.327350000000    -0.00966764 
C247     C      0.088730000000     0.962870000000     0.304690000000    -0.00639196 
C248     C      0.057460000000     0.960640000000     0.312570000000    -0.0758973  
C249     C      0.049460000000     0.958630000000     0.343850000000    -0.00711138 
C250     C      0.072240000000     0.958610000000     0.366610000000    -0.00773613 
C251     C      0.103520000000     0.960600000000     0.358610000000    -0.0752879  
C252     C      0.111390000000     0.962840000000     0.327340000000    -0.0099376  
C253     C      0.111380000000     0.455150000000     0.089110000000    -0.0105691  
C254     C      0.103470000000     0.456050000000     0.057790000000    -0.0764     
C255     C      0.072150000000     0.956910000000     0.049730000000    -0.00851811 
C256     C      0.049380000000     0.957040000000     0.072500000000    -0.00738885 
C257     C      0.057420000000     0.956360000000     0.103830000000    -0.0785409  
C258     C      0.088740000000     0.455310000000     0.111760000000    -0.00827801 
C259     C      0.366270000000     0.459560000000     0.072580000000    -0.0075957  
C260     C      0.358220000000     0.459490000000     0.103920000000    -0.078607   
C261     C      0.326890000000     0.459630000000     0.111860000000    -0.00831685 
C262     C      0.304240000000     0.459640000000     0.089210000000    -0.0107428  
C263     C      0.312160000000     0.459510000000     0.057880000000    -0.0769876  
C264     C      0.343500000000     0.459560000000     0.049820000000    -0.00870448 
C265     C      0.457250000000     0.572480000000     0.366570000000    -0.00787622 
C266     C      0.457860000000     0.603800000000     0.358510000000    -0.0767021  
C267     C      0.958880000000     0.611710000000     0.327190000000    -0.00923508 
C268     C      0.959290000000     0.589050000000     0.304560000000    -0.00865761 
C269     C      0.458680000000     0.557730000000     0.312500000000    -0.0763101  
C270     C      0.457640000000     0.549700000000     0.343820000000    -0.00756848 
C271     C      0.958210000000     0.843810000000     0.366680000000    -0.00717101 
C272     C      0.458530000000     0.812480000000     0.358610000000    -0.0761873  
C273     C      0.458290000000     0.804560000000     0.327280000000    -0.00873656 
C274     C      0.457720000000     0.827200000000     0.304640000000    -0.00889114 
C275     C      0.957420000000     0.858520000000     0.312580000000    -0.0756173  
C276     C      0.957690000000     0.866580000000     0.343910000000    -0.00726904 
C277     C      0.956170000000     0.804480000000     0.089150000000    -0.00874954 
C278     C      0.956850000000     0.812410000000     0.057820000000    -0.0763831  
C279     C      0.957930000000     0.843720000000     0.049780000000    -0.00744152 
C280     C      0.958320000000     0.866480000000     0.072550000000    -0.00796425 
C281     C      0.957660000000     0.858430000000     0.103880000000    -0.0762639  
C282     C      0.956590000000     0.827110000000     0.111800000000    -0.0094228  
C283     C      0.457830000000     0.549630000000     0.072480000000    -0.00854734 
C284     C      0.457730000000     0.557690000000     0.103820000000    -0.0769972  
C285     C      0.457880000000     0.589020000000     0.111750000000    -0.0096798  
C286     C      0.958140000000     0.611660000000     0.089110000000    -0.00927852 
C287     C      0.958230000000     0.603730000000     0.057780000000    -0.0770638  
C288     C      0.958090000000     0.572410000000     0.049720000000    -0.00797002 
C289     C      0.382020000000     0.459020000000     0.628390000000     0.327727   
C290     C      0.458840000000     0.533940000000     0.788020000000     0.327614   
C291     C      0.457650000000     0.533910000000     0.628320000000     0.32588    
C292     C      0.382090000000     0.456250000000     0.788110000000     0.328847   
C293     C      0.957090000000     0.882300000000     0.788090000000     0.327638   
C294     C      0.033640000000     0.956980000000     0.628320000000     0.327718   
C295     C      0.033690000000     0.960120000000     0.788060000000     0.329146   
C296     C      0.957910000000     0.882200000000     0.628380000000     0.32592    
C297     C      0.033740000000     0.628290000000     0.458300000000     0.327094   
C298     C      0.956740000000     0.787920000000     0.534030000000     0.327838   
C299     C      0.958260000000     0.628230000000     0.534010000000     0.325767   
C300     C      0.033650000000     0.788020000000     0.457160000000     0.32825    
C301     C      0.458810000000     0.787990000000     0.882390000000     0.327711   
C302     C      0.382070000000     0.628230000000     0.957830000000     0.327642   
C303     C      0.382040000000     0.787950000000     0.959450000000     0.328623   
C304     C      0.457670000000     0.628300000000     0.882280000000     0.325779   
C305     C      0.287760000000     0.533900000000     0.458370000000     0.327286   
C306     C      0.127980000000     0.456400000000     0.534020000000     0.327106   
C307     C      0.287670000000     0.459080000000     0.534100000000     0.325827   
C308     C      0.128020000000     0.533930000000     0.457090000000     0.328406   
C309     C      0.128040000000     0.960030000000     0.882370000000     0.327577   
C310     C      0.287710000000     0.882250000000     0.958270000000     0.327498   
C311     C      0.127950000000     0.882340000000     0.959090000000     0.328504   
C312     C      0.287750000000     0.956910000000     0.882420000000     0.326404   
C313     C      0.326930000000     0.804530000000     0.960450000000    -0.00821018 
C314     C      0.358250000000     0.812440000000     0.959350000000    -0.0751222  
C315     C      0.366290000000     0.843740000000     0.957880000000    -0.00768596 
C316     C      0.343520000000     0.866500000000     0.957480000000    -0.00697032 
C317     C      0.312190000000     0.858460000000     0.958520000000    -0.0776471  
C318     C      0.304280000000     0.827170000000     0.960030000000    -0.0086417  
C319     C      0.366350000000     0.572410000000     0.457970000000    -0.00790721 
C320     C      0.358290000000     0.603740000000     0.957830000000    -0.0779742  
C321     C      0.326950000000     0.611660000000     0.957920000000    -0.00928934 
C322     C      0.304310000000     0.589010000000     0.958160000000    -0.00936974 
C323     C      0.312250000000     0.557690000000     0.458330000000    -0.0782038  
C324     C      0.343590000000     0.549640000000     0.458230000000    -0.00798573 
C325     C      0.072130000000     0.866610000000     0.458400000000    -0.00791501 
C326     C      0.103460000000     0.858550000000     0.958720000000    -0.0750795  
C327     C      0.111400000000     0.827230000000     0.958400000000    -0.0078745  
C328     C      0.088760000000     0.804590000000     0.957770000000    -0.00760382 
C329     C      0.057430000000     0.812510000000     0.457490000000    -0.0760133  
C330     C      0.049360000000     0.843830000000     0.457830000000    -0.00756491 
C331     C      0.088830000000     0.611700000000     0.456640000000    -0.00905939 
C332     C      0.057520000000     0.603790000000     0.458090000000    -0.0783424  
C333     C      0.049470000000     0.572480000000     0.459100000000    -0.0074898  
C334     C      0.072230000000     0.549700000000     0.458690000000    -0.00828338 
C335     C      0.103540000000     0.557730000000     0.457240000000    -0.0756618  
C336     C      0.111460000000     0.589040000000     0.456200000000    -0.00846623 
C337     C      0.327000000000     0.954560000000     0.804710000000    -0.00683325 
C338     C      0.358310000000     0.455900000000     0.812620000000    -0.0758987  
C339     C      0.366350000000     0.457190000000     0.843930000000    -0.00748543 
C340     C      0.343580000000     0.457350000000     0.866700000000    -0.00813306 
C341     C      0.312260000000     0.956260000000     0.858650000000    -0.0759132  
C342     C      0.304350000000     0.954750000000     0.827350000000    -0.00969641 
C343     C      0.088730000000     0.962870000000     0.804690000000    -0.0063408  
C344     C      0.057460000000     0.960640000000     0.812560000000    -0.0759988  
C345     C      0.049460000000     0.958630000000     0.843850000000    -0.00707132 
C346     C      0.072240000000     0.958610000000     0.866610000000    -0.00777676 
C347     C      0.103520000000     0.960600000000     0.858610000000    -0.0752564  
C348     C      0.111390000000     0.962840000000     0.827340000000    -0.00999615 
C349     C      0.111380000000     0.455140000000     0.589110000000    -0.0105528  
C350     C      0.103470000000     0.456050000000     0.557790000000    -0.0759179  
C351     C      0.072150000000     0.956910000000     0.549730000000    -0.00836276 
C352     C      0.049380000000     0.957040000000     0.572500000000    -0.00708632 
C353     C      0.057420000000     0.956360000000     0.603830000000    -0.0784938  
C354     C      0.088740000000     0.455310000000     0.611760000000    -0.00812776 
C355     C      0.366270000000     0.459560000000     0.572580000000    -0.00730819 
C356     C      0.358220000000     0.459490000000     0.603910000000    -0.0784761  
C357     C      0.326890000000     0.459630000000     0.611860000000    -0.00822206 
C358     C      0.304240000000     0.459640000000     0.589210000000    -0.0107063  
C359     C      0.312160000000     0.459510000000     0.557880000000    -0.0765242  
C360     C      0.343500000000     0.459560000000     0.549820000000    -0.00853635 
C361     C      0.457250000000     0.572480000000     0.866570000000    -0.00790085 
C362     C      0.457860000000     0.603800000000     0.858510000000    -0.0766937  
C363     C      0.958880000000     0.611710000000     0.827190000000    -0.00926162 
C364     C      0.959300000000     0.589050000000     0.804560000000    -0.00866287 
C365     C      0.458680000000     0.557730000000     0.812500000000    -0.0763295  
C366     C      0.457640000000     0.549700000000     0.843820000000    -0.00754733 
C367     C      0.958220000000     0.843810000000     0.866680000000    -0.00719031 
C368     C      0.458530000000     0.812480000000     0.858610000000    -0.0761809  
C369     C      0.458290000000     0.804560000000     0.827280000000    -0.00876398 
C370     C      0.457720000000     0.827200000000     0.804640000000    -0.00889949 
C371     C      0.957420000000     0.858520000000     0.812580000000    -0.0756347  
C372     C      0.957690000000     0.866580000000     0.843910000000    -0.0072503  
C373     C      0.956170000000     0.804480000000     0.589150000000    -0.00875177 
C374     C      0.956850000000     0.812410000000     0.557820000000    -0.0758558  
C375     C      0.957930000000     0.843720000000     0.549770000000    -0.00735337 
C376     C      0.958320000000     0.866480000000     0.572550000000    -0.0076185  
C377     C      0.957670000000     0.858430000000     0.603880000000    -0.076228   
C378     C      0.956590000000     0.827110000000     0.611800000000    -0.00925334 
C379     C      0.457830000000     0.549630000000     0.572480000000    -0.00823369 
C380     C      0.457730000000     0.557690000000     0.603820000000    -0.0769592  
C381     C      0.457880000000     0.589020000000     0.611750000000    -0.0095173  
C382     C      0.958140000000     0.611660000000     0.589110000000    -0.00929614 
C383     C      0.958230000000     0.603730000000     0.557780000000    -0.0765337  
C384     C      0.958090000000     0.572410000000     0.549720000000    -0.00783803 
C385     C      0.882020000000     0.959020000000     0.128390000000     0.327873   
C386     C      0.958830000000     0.033940000000     0.288020000000     0.327718   
C387     C      0.957650000000     0.033910000000     0.128320000000     0.326096   
C388     C      0.882090000000     0.956250000000     0.288110000000     0.329131   
C389     C      0.457090000000     0.382310000000     0.288090000000     0.32729    
C390     C      0.533640000000     0.456980000000     0.128320000000     0.327424   
C391     C      0.533690000000     0.460120000000     0.288060000000     0.329054   
C392     C      0.457910000000     0.382200000000     0.128380000000     0.325725   
C393     C      0.533740000000     0.128290000000     0.958300000000     0.327301   
C394     C      0.456750000000     0.287920000000     0.034030000000     0.327485   
C395     C      0.458260000000     0.128230000000     0.034010000000     0.32558    
C396     C      0.533650000000     0.288020000000     0.957160000000     0.328624   
C397     C      0.958810000000     0.287990000000     0.382390000000     0.327941   
C398     C      0.882070000000     0.128230000000     0.457830000000     0.32714    
C399     C      0.882040000000     0.287950000000     0.459450000000     0.328321   
C400     C      0.957670000000     0.128300000000     0.382280000000     0.326053   
C401     C      0.787760000000     0.033900000000     0.958370000000     0.327359   
C402     C      0.627980000000     0.956400000000     0.034020000000     0.327315   
C403     C      0.787670000000     0.959080000000     0.034100000000     0.325996   
C404     C      0.628020000000     0.033930000000     0.957090000000     0.328632   
C405     C      0.628040000000     0.460040000000     0.382370000000     0.327473   
C406     C      0.787710000000     0.382250000000     0.458270000000     0.327135   
C407     C      0.627950000000     0.382340000000     0.459090000000     0.328378   
C408     C      0.787750000000     0.456910000000     0.382420000000     0.326161   
C409     C      0.826930000000     0.304530000000     0.460450000000    -0.00844912 
C410     C      0.858250000000     0.312440000000     0.459350000000    -0.0754132  
C411     C      0.866290000000     0.343740000000     0.457880000000    -0.0079922  
C412     C      0.843520000000     0.366500000000     0.457470000000    -0.00727074 
C413     C      0.812200000000     0.358460000000     0.458520000000    -0.0779337  
C414     C      0.804280000000     0.327170000000     0.460020000000    -0.00892768 
C415     C      0.866350000000     0.072410000000     0.957970000000    -0.00794238 
C416     C      0.858290000000     0.103740000000     0.457830000000    -0.0782924  
C417     C      0.826950000000     0.111660000000     0.457920000000    -0.00977417 
C418     C      0.804310000000     0.089010000000     0.458160000000    -0.00957635 
C419     C      0.812250000000     0.057690000000     0.958330000000    -0.0782828  
C420     C      0.843590000000     0.049640000000     0.958230000000    -0.00785375 
C421     C      0.572120000000     0.366610000000     0.958400000000    -0.00726889 
C422     C      0.603460000000     0.358550000000     0.458720000000    -0.0753884  
C423     C      0.611400000000     0.327230000000     0.458400000000    -0.00792996 
C424     C      0.588760000000     0.304590000000     0.457770000000    -0.00782654 
C425     C      0.557430000000     0.312510000000     0.957490000000    -0.0750796  
C426     C      0.549360000000     0.343840000000     0.957830000000    -0.00719692 
C427     C      0.588830000000     0.111700000000     0.956640000000    -0.00897176 
C428     C      0.557520000000     0.103790000000     0.958090000000    -0.077507   
C429     C      0.549470000000     0.072480000000     0.959100000000    -0.00736461 
C430     C      0.572230000000     0.049700000000     0.958690000000    -0.00783703 
C431     C      0.603540000000     0.057730000000     0.957240000000    -0.0757042  
C432     C      0.611460000000     0.089040000000     0.956200000000    -0.0080703  
C433     C      0.827000000000     0.454560000000     0.304710000000    -0.00712576 
C434     C      0.858320000000     0.955900000000     0.312620000000    -0.075487   
C435     C      0.866360000000     0.957190000000     0.343930000000    -0.00728769 
C436     C      0.843580000000     0.957350000000     0.366700000000    -0.00774748 
C437     C      0.812250000000     0.456260000000     0.358650000000    -0.0763868  
C438     C      0.804350000000     0.454750000000     0.327350000000    -0.00982892 
C439     C      0.588730000000     0.462860000000     0.304690000000    -0.00656794 
C440     C      0.557460000000     0.460640000000     0.312560000000    -0.0758256  
C441     C      0.549460000000     0.458630000000     0.343850000000    -0.00719016 
C442     C      0.572230000000     0.458610000000     0.366610000000    -0.00775219 
C443     C      0.603520000000     0.460600000000     0.358610000000    -0.0755715  
C444     C      0.611380000000     0.462840000000     0.327340000000    -0.00998955 
C445     C      0.611380000000     0.955140000000     0.089110000000    -0.0101933  
C446     C      0.603470000000     0.956050000000     0.057790000000    -0.0759232  
C447     C      0.572150000000     0.456910000000     0.049730000000    -0.00848012 
C448     C      0.549380000000     0.457040000000     0.072500000000    -0.00755923 
C449     C      0.557420000000     0.456350000000     0.103830000000    -0.0783994  
C450     C      0.588740000000     0.955310000000     0.111760000000    -0.0079946  
C451     C      0.866270000000     0.959560000000     0.072580000000    -0.00734003 
C452     C      0.858220000000     0.959490000000     0.103920000000    -0.0781874  
C453     C      0.826890000000     0.959630000000     0.111860000000    -0.00808744 
C454     C      0.804240000000     0.959640000000     0.089210000000    -0.0104897  
C455     C      0.812160000000     0.959500000000     0.057880000000    -0.0766551  
C456     C      0.843490000000     0.959560000000     0.049820000000    -0.00835441 
C457     C      0.957250000000     0.072480000000     0.366570000000    -0.00789022 
C458     C      0.957860000000     0.103800000000     0.358510000000    -0.0763998  
C459     C      0.458880000000     0.111710000000     0.327190000000    -0.00964224 
C460     C      0.459290000000     0.089050000000     0.304560000000    -0.00889473 
C461     C      0.958680000000     0.057730000000     0.312500000000    -0.0764528  
C462     C      0.957640000000     0.049700000000     0.343820000000    -0.00745264 
C463     C      0.458210000000     0.343810000000     0.366680000000    -0.00747644 
C464     C      0.958530000000     0.312480000000     0.358610000000    -0.0758528  
C465     C      0.958290000000     0.304560000000     0.327280000000    -0.00844762 
C466     C      0.957720000000     0.327200000000     0.304640000000    -0.00868184 
C467     C      0.457410000000     0.358520000000     0.312580000000    -0.075943   
C468     C      0.457690000000     0.366580000000     0.343910000000    -0.00757034 
C469     C      0.456170000000     0.304480000000     0.089150000000    -0.00901098 
C470     C      0.456850000000     0.312410000000     0.057820000000    -0.0767757  
C471     C      0.457930000000     0.343720000000     0.049780000000    -0.00776266 
C472     C      0.458320000000     0.366480000000     0.072550000000    -0.00821226 
C473     C      0.457670000000     0.358430000000     0.103880000000    -0.0766952  
C474     C      0.456590000000     0.327110000000     0.111800000000    -0.00963689 
C475     C      0.957830000000     0.049630000000     0.072480000000    -0.00835904 
C476     C      0.957720000000     0.057690000000     0.103820000000    -0.0771621  
C477     C      0.957880000000     0.089010000000     0.111750000000    -0.0093385  
C478     C      0.458140000000     0.111660000000     0.089110000000    -0.00966836 
C479     C      0.458230000000     0.103730000000     0.057780000000    -0.0775295  
C480     C      0.458090000000     0.072410000000     0.049720000000    -0.0085323  
C481     C      0.882020000000     0.959020000000     0.628390000000     0.327864   
C482     C      0.958830000000     0.033940000000     0.788020000000     0.327709   
C483     C      0.957650000000     0.033910000000     0.628320000000     0.326143   
C484     C      0.882090000000     0.956250000000     0.788110000000     0.329121   
C485     C      0.457090000000     0.382310000000     0.788090000000     0.327274   
C486     C      0.533640000000     0.456980000000     0.628320000000     0.327469   
C487     C      0.533690000000     0.460120000000     0.788060000000     0.329038   
C488     C      0.457910000000     0.382200000000     0.628380000000     0.32578    
C489     C      0.533740000000     0.128290000000     0.458300000000     0.327142   
C490     C      0.456750000000     0.287920000000     0.534030000000     0.327569   
C491     C      0.458260000000     0.128230000000     0.534010000000     0.325654   
C492     C      0.533650000000     0.288020000000     0.457160000000     0.328362   
C493     C      0.958810000000     0.287990000000     0.882390000000     0.327919   
C494     C      0.882070000000     0.128230000000     0.957830000000     0.327461   
C495     C      0.882040000000     0.287950000000     0.959450000000     0.328517   
C496     C      0.957670000000     0.128300000000     0.882280000000     0.326029   
C497     C      0.787760000000     0.033900000000     0.458370000000     0.327207   
C498     C      0.627980000000     0.956400000000     0.534020000000     0.327414   
C499     C      0.787670000000     0.959080000000     0.534100000000     0.326079   
C500     C      0.628020000000     0.033930000000     0.457090000000     0.328363   
C501     C      0.628040000000     0.460040000000     0.882370000000     0.327451   
C502     C      0.787710000000     0.382250000000     0.958270000000     0.32745    
C503     C      0.627950000000     0.382340000000     0.959090000000     0.32858    
C504     C      0.787750000000     0.456910000000     0.882420000000     0.326082   
C505     C      0.826930000000     0.304530000000     0.960450000000    -0.00821855 
C506     C      0.858250000000     0.312440000000     0.959350000000    -0.0750653  
C507     C      0.866290000000     0.343740000000     0.957880000000    -0.00772035 
C508     C      0.843520000000     0.366500000000     0.957480000000    -0.00697557 
C509     C      0.812200000000     0.358460000000     0.958520000000    -0.0775817  
C510     C      0.804280000000     0.327170000000     0.960030000000    -0.00867672 
C511     C      0.866350000000     0.072410000000     0.457970000000    -0.00826157 
C512     C      0.858290000000     0.103740000000     0.957830000000    -0.0779536  
C513     C      0.826950000000     0.111660000000     0.957920000000    -0.00949322 
C514     C      0.804310000000     0.089010000000     0.958160000000    -0.00936929 
C515     C      0.812250000000     0.057690000000     0.458330000000    -0.0787118  
C516     C      0.843590000000     0.049640000000     0.458230000000    -0.00810354 
C517     C      0.572120000000     0.366610000000     0.458400000000    -0.00756082 
C518     C      0.603460000000     0.358550000000     0.958720000000    -0.0750478  
C519     C      0.611400000000     0.327230000000     0.958400000000    -0.0076834  
C520     C      0.588760000000     0.304590000000     0.957770000000    -0.00759378 
C521     C      0.557430000000     0.312510000000     0.457490000000    -0.0754899  
C522     C      0.549360000000     0.343840000000     0.457830000000    -0.00747163 
C523     C      0.588830000000     0.111700000000     0.456640000000    -0.00920104 
C524     C      0.557520000000     0.103790000000     0.458090000000    -0.077924   
C525     C      0.549470000000     0.072480000000     0.459100000000    -0.0076341  
C526     C      0.572230000000     0.049700000000     0.458690000000    -0.00813603 
C527     C      0.603540000000     0.057730000000     0.457240000000    -0.0761031  
C528     C      0.611460000000     0.089040000000     0.456200000000    -0.00833126 
C529     C      0.827000000000     0.454560000000     0.804710000000    -0.00710496 
C530     C      0.858320000000     0.955900000000     0.812620000000    -0.0755054  
C531     C      0.866360000000     0.957190000000     0.843930000000    -0.00726589 
C532     C      0.843580000000     0.957350000000     0.866700000000    -0.00777218 
C533     C      0.812260000000     0.456260000000     0.858650000000    -0.0762961  
C534     C      0.804350000000     0.454750000000     0.827350000000    -0.00991433 
C535     C      0.588730000000     0.462860000000     0.804690000000    -0.00658688 
C536     C      0.557460000000     0.460640000000     0.812560000000    -0.0758297  
C537     C      0.549460000000     0.458630000000     0.843850000000    -0.00720253 
C538     C      0.572240000000     0.458610000000     0.866610000000    -0.00772158 
C539     C      0.603520000000     0.460600000000     0.858610000000    -0.0755854  
C540     C      0.611380000000     0.462840000000     0.827340000000    -0.0100052  
C541     C      0.611380000000     0.955140000000     0.589110000000    -0.0101792  
C542     C      0.603470000000     0.956050000000     0.557790000000    -0.075436   
C543     C      0.572150000000     0.456910000000     0.549730000000    -0.00832328 
C544     C      0.549380000000     0.457040000000     0.572500000000    -0.00725608 
C545     C      0.557420000000     0.456350000000     0.603830000000    -0.0783498  
C546     C      0.588740000000     0.955310000000     0.611760000000    -0.00784186 
C547     C      0.866270000000     0.959560000000     0.572580000000    -0.00705157 
C548     C      0.858220000000     0.959490000000     0.603910000000    -0.0780566  
C549     C      0.826890000000     0.959630000000     0.611860000000    -0.0079925  
C550     C      0.804240000000     0.959640000000     0.589210000000    -0.0104514  
C551     C      0.812160000000     0.959500000000     0.557880000000    -0.0761906  
C552     C      0.843490000000     0.959560000000     0.549820000000    -0.00818576 
C553     C      0.957250000000     0.072480000000     0.866570000000    -0.00791643 
C554     C      0.957860000000     0.103800000000     0.858510000000    -0.0763888  
C555     C      0.458880000000     0.111710000000     0.827190000000    -0.00966677 
C556     C      0.459290000000     0.089050000000     0.804560000000    -0.00890527 
C557     C      0.958680000000     0.057730000000     0.812500000000    -0.0764748  
C558     C      0.957640000000     0.049700000000     0.843820000000    -0.00742975 
C559     C      0.458210000000     0.343810000000     0.866680000000    -0.0074787  
C560     C      0.958530000000     0.312480000000     0.858610000000    -0.0758427  
C561     C      0.958290000000     0.304560000000     0.827280000000    -0.00847569 
C562     C      0.957720000000     0.327200000000     0.804640000000    -0.0086862  
C563     C      0.457410000000     0.358520000000     0.812580000000    -0.075945   
C564     C      0.457700000000     0.366580000000     0.843910000000    -0.00756499 
C565     C      0.456170000000     0.304480000000     0.589150000000    -0.00901397 
C566     C      0.456850000000     0.312410000000     0.557820000000    -0.0762502  
C567     C      0.457930000000     0.343720000000     0.549770000000    -0.00767499 
C568     C      0.458320000000     0.366480000000     0.572550000000    -0.00786756 
C569     C      0.457670000000     0.358430000000     0.603880000000    -0.0766615  
C570     C      0.456590000000     0.327110000000     0.611800000000    -0.00946655 
C571     C      0.957830000000     0.049630000000     0.572480000000    -0.00805827 
C572     C      0.957720000000     0.057690000000     0.603820000000    -0.0771169  
C573     C      0.957880000000     0.089010000000     0.611750000000    -0.00918812 
C574     C      0.458140000000     0.111660000000     0.589110000000    -0.00966239 
C575     C      0.458230000000     0.103730000000     0.557780000000    -0.0770565  
C576     C      0.458090000000     0.072410000000     0.549720000000    -0.00838074 
C577     C      0.882020000000     0.459020000000     0.128390000000     0.327658   
C578     C      0.958830000000     0.533940000000     0.288020000000     0.327816   
C579     C      0.957650000000     0.533910000000     0.128320000000     0.32616    
C580     C      0.882090000000     0.456250000000     0.288110000000     0.328866   
C581     C      0.457090000000     0.882300000000     0.288090000000     0.327382   
C582     C      0.533640000000     0.956980000000     0.128320000000     0.32775    
C583     C      0.533690000000     0.960120000000     0.288060000000     0.329251   
C584     C      0.457910000000     0.882200000000     0.128380000000     0.325702   
C585     C      0.533740000000     0.628290000000     0.958300000000     0.327351   
C586     C      0.456750000000     0.787920000000     0.034030000000     0.327474   
C587     C      0.458260000000     0.628230000000     0.034010000000     0.325635   
C588     C      0.533650000000     0.788020000000     0.957160000000     0.328624   
C589     C      0.958810000000     0.787990000000     0.382390000000     0.32792    
C590     C      0.882070000000     0.628230000000     0.457830000000     0.327189   
C591     C      0.882040000000     0.787950000000     0.459450000000     0.32841    
C592     C      0.957670000000     0.628300000000     0.382280000000     0.326103   
C593     C      0.787760000000     0.533900000000     0.958370000000     0.327432   
C594     C      0.627980000000     0.456400000000     0.034020000000     0.327056   
C595     C      0.787670000000     0.459080000000     0.034100000000     0.325841   
C596     C      0.628020000000     0.533930000000     0.957090000000     0.328723   
C597     C      0.628040000000     0.960040000000     0.382370000000     0.327663   
C598     C      0.787710000000     0.882250000000     0.458270000000     0.327109   
C599     C      0.627950000000     0.882340000000     0.459090000000     0.328343   
C600     C      0.787750000000     0.956910000000     0.382420000000     0.326427   
C601     C      0.826930000000     0.804530000000     0.460450000000    -0.00843206 
C602     C      0.858250000000     0.812440000000     0.459350000000    -0.0754847  
C603     C      0.866290000000     0.843740000000     0.457880000000    -0.00794901 
C604     C      0.843520000000     0.866500000000     0.457470000000    -0.00730757 
C605     C      0.812200000000     0.858460000000     0.458520000000    -0.0779149  
C606     C      0.804280000000     0.827170000000     0.460020000000    -0.0089683  
C607     C      0.866350000000     0.572410000000     0.957970000000    -0.00763838 
C608     C      0.858290000000     0.603740000000     0.457830000000    -0.0782448  
C609     C      0.826950000000     0.611660000000     0.457920000000    -0.00962233 
C610     C      0.804310000000     0.589010000000     0.458160000000    -0.00956989 
C611     C      0.812250000000     0.557690000000     0.958330000000    -0.0778037  
C612     C      0.843590000000     0.549640000000     0.958230000000    -0.0077002  
C613     C      0.572120000000     0.866610000000     0.958400000000    -0.00737644 
C614     C      0.603460000000     0.858550000000     0.458720000000    -0.0753396  
C615     C      0.611400000000     0.827230000000     0.458400000000    -0.00798188 
C616     C      0.588760000000     0.804590000000     0.457770000000    -0.00781035 
C617     C      0.557430000000     0.812510000000     0.957490000000    -0.0751355  
C618     C      0.549360000000     0.843830000000     0.957830000000    -0.00709662 
C619     C      0.588830000000     0.611700000000     0.956640000000    -0.00881431 
C620     C      0.557520000000     0.603790000000     0.958090000000    -0.0774552  
C621     C      0.549470000000     0.572480000000     0.959100000000    -0.00705656 
C622     C      0.572230000000     0.549700000000     0.958690000000    -0.00768027 
C623     C      0.603540000000     0.557730000000     0.957240000000    -0.0752106  
C624     C      0.611460000000     0.589040000000     0.956200000000    -0.00805445 
C625     C      0.827000000000     0.954560000000     0.304710000000    -0.00688162 
C626     C      0.858320000000     0.455900000000     0.312620000000    -0.0758867  
C627     C      0.866360000000     0.457190000000     0.343930000000    -0.00757002 
C628     C      0.843580000000     0.457350000000     0.366700000000    -0.00804621 
C629     C      0.812260000000     0.956260000000     0.358650000000    -0.0759698  
C630     C      0.804350000000     0.954750000000     0.327350000000    -0.00962325 
C631     C      0.588730000000     0.962870000000     0.304690000000    -0.00634262 
C632     C      0.557460000000     0.960640000000     0.312560000000    -0.0754797  
C633     C      0.549460000000     0.958630000000     0.343850000000    -0.00691716 
C634     C      0.572230000000     0.958610000000     0.366610000000    -0.00747606 
C635     C      0.603520000000     0.960600000000     0.358610000000    -0.0752316  
C636     C      0.611380000000     0.962840000000     0.327340000000    -0.0097501  
C637     C      0.611380000000     0.455140000000     0.089110000000    -0.0104163  
C638     C      0.603470000000     0.456050000000     0.057790000000    -0.0763566  
C639     C      0.572150000000     0.956910000000     0.049730000000    -0.0082166  
C640     C      0.549380000000     0.957040000000     0.072500000000    -0.00723546 
C641     C      0.557420000000     0.956360000000     0.103830000000    -0.0780656  
C642     C      0.588740000000     0.455310000000     0.111760000000    -0.00827211 
C643     C      0.866270000000     0.459560000000     0.072580000000    -0.00763371 
C644     C      0.858220000000     0.459490000000     0.103910000000    -0.0785186  
C645     C      0.826890000000     0.459630000000     0.111860000000    -0.00839412 
C646     C      0.804240000000     0.459640000000     0.089210000000    -0.0107056  
C647     C      0.812160000000     0.459510000000     0.057880000000    -0.0770854  
C648     C      0.843490000000     0.459560000000     0.049820000000    -0.00861803 
C649     C      0.957250000000     0.572480000000     0.366570000000    -0.00758307 
C650     C      0.957860000000     0.603800000000     0.358510000000    -0.0763461  
C651     C      0.458880000000     0.611710000000     0.327190000000    -0.00948235 
C652     C      0.459290000000     0.589050000000     0.304560000000    -0.00888064 
C653     C      0.958680000000     0.557730000000     0.312500000000    -0.0759644  
C654     C      0.957640000000     0.549700000000     0.343820000000    -0.00729142 
C655     C      0.458210000000     0.843810000000     0.366680000000    -0.00746694 
C656     C      0.958530000000     0.812480000000     0.358610000000    -0.0758488  
C657     C      0.958290000000     0.804560000000     0.327280000000    -0.00848214 
C658     C      0.957720000000     0.827200000000     0.304640000000    -0.00865858 
C659     C      0.457410000000     0.858520000000     0.312580000000    -0.0760411  
C660     C      0.457690000000     0.866580000000     0.343910000000    -0.00754253 
C661     C      0.456170000000     0.804480000000     0.089150000000    -0.00901834 
C662     C      0.456850000000     0.812410000000     0.057820000000    -0.0767956  
C663     C      0.457930000000     0.843720000000     0.049780000000    -0.0077413  
C664     C      0.458320000000     0.866480000000     0.072550000000    -0.00823752 
C665     C      0.457670000000     0.858430000000     0.103880000000    -0.0766864  
C666     C      0.456590000000     0.827110000000     0.111800000000    -0.00966532 
C667     C      0.957830000000     0.549630000000     0.072480000000    -0.00822185 
C668     C      0.957720000000     0.557690000000     0.103820000000    -0.0766608  
C669     C      0.957880000000     0.589020000000     0.111750000000    -0.00939018 
C670     C      0.458140000000     0.611660000000     0.089110000000    -0.00948234 
C671     C      0.458230000000     0.603730000000     0.057780000000    -0.0775014  
C672     C      0.458090000000     0.572410000000     0.049720000000    -0.00821936 
C673     C      0.882020000000     0.459020000000     0.628390000000     0.327705   
C674     C      0.958830000000     0.533940000000     0.788020000000     0.327805   
C675     C      0.957650000000     0.533910000000     0.628320000000     0.326209   
C676     C      0.882090000000     0.456250000000     0.788110000000     0.32886    
C677     C      0.457090000000     0.882300000000     0.788090000000     0.327371   
C678     C      0.533640000000     0.956980000000     0.628320000000     0.327796   
C679     C      0.533690000000     0.960120000000     0.788060000000     0.329234   
C680     C      0.457910000000     0.882200000000     0.628380000000     0.325756   
C681     C      0.533740000000     0.628290000000     0.458300000000     0.327192   
C682     C      0.456750000000     0.787920000000     0.534030000000     0.327558   
C683     C      0.458260000000     0.628230000000     0.534010000000     0.325609   
C684     C      0.533650000000     0.788020000000     0.457160000000     0.328362   
C685     C      0.958810000000     0.787990000000     0.882390000000     0.327917   
C686     C      0.882070000000     0.628230000000     0.957830000000     0.327512   
C687     C      0.882040000000     0.787950000000     0.959450000000     0.328607   
C688     C      0.957670000000     0.628300000000     0.882280000000     0.326099   
C689     C      0.787760000000     0.533900000000     0.458370000000     0.32728    
C690     C      0.627980000000     0.456400000000     0.534020000000     0.327154   
C691     C      0.787670000000     0.459080000000     0.534100000000     0.325921   
C692     C      0.628020000000     0.533930000000     0.457090000000     0.328455   
C693     C      0.628040000000     0.960030000000     0.882370000000     0.327643   
C694     C      0.787710000000     0.882250000000     0.958270000000     0.327424   
C695     C      0.627950000000     0.882340000000     0.959090000000     0.328544   
C696     C      0.787750000000     0.956910000000     0.882420000000     0.326404   
C697     C      0.826930000000     0.804530000000     0.960450000000    -0.00820173 
C698     C      0.858250000000     0.812440000000     0.959350000000    -0.075137   
C699     C      0.866290000000     0.843740000000     0.957880000000    -0.00767712 
C700     C      0.843520000000     0.866500000000     0.957480000000    -0.0070123  
C701     C      0.812200000000     0.858460000000     0.958520000000    -0.0775631  
C702     C      0.804280000000     0.827170000000     0.960030000000    -0.00871708 
C703     C      0.866350000000     0.572410000000     0.457970000000    -0.00795855 
C704     C      0.858290000000     0.603740000000     0.957830000000    -0.0779069  
C705     C      0.826950000000     0.611660000000     0.957920000000    -0.00934047 
C706     C      0.804310000000     0.589010000000     0.958160000000    -0.00936294 
C707     C      0.812250000000     0.557690000000     0.458330000000    -0.0782337  
C708     C      0.843590000000     0.549640000000     0.458230000000    -0.00794986 
C709     C      0.572120000000     0.866610000000     0.458400000000    -0.00766801 
C710     C      0.603460000000     0.858550000000     0.958720000000    -0.075002   
C711     C      0.611400000000     0.827230000000     0.958400000000    -0.00773453 
C712     C      0.588760000000     0.804590000000     0.957770000000    -0.00757859 
C713     C      0.557430000000     0.812510000000     0.457490000000    -0.0755461  
C714     C      0.549360000000     0.843830000000     0.457830000000    -0.00737053 
C715     C      0.588830000000     0.611700000000     0.456640000000    -0.00904367 
C716     C      0.557520000000     0.603790000000     0.458090000000    -0.0778726  
C717     C      0.549470000000     0.572480000000     0.459100000000    -0.00732623 
C718     C      0.572230000000     0.549700000000     0.458690000000    -0.00797904 
C719     C      0.603540000000     0.557730000000     0.457240000000    -0.0756083  
C720     C      0.611460000000     0.589040000000     0.456200000000    -0.00831589 
C721     C      0.827000000000     0.954560000000     0.804710000000    -0.00688827 
C722     C      0.858320000000     0.455900000000     0.812620000000    -0.0759204  
C723     C      0.866360000000     0.457190000000     0.843930000000    -0.00753614 
C724     C      0.843580000000     0.457350000000     0.866700000000    -0.00808778 
C725     C      0.812260000000     0.956260000000     0.858650000000    -0.0759598  
C726     C      0.804350000000     0.954750000000     0.827350000000    -0.00965115 
C727     C      0.588730000000     0.962870000000     0.804690000000    -0.00636268 
C728     C      0.557460000000     0.960640000000     0.812560000000    -0.0754824  
C729     C      0.549460000000     0.958630000000     0.843850000000    -0.00693181 
C730     C      0.572240000000     0.958610000000     0.866610000000    -0.00744066 
C731     C      0.603520000000     0.960590000000     0.858610000000    -0.0752506  
C732     C      0.611380000000     0.962840000000     0.827340000000    -0.00976357 
C733     C      0.611380000000     0.455140000000     0.589110000000    -0.0104028  
C734     C      0.603470000000     0.456050000000     0.557790000000    -0.0758704  
C735     C      0.572150000000     0.956910000000     0.549730000000    -0.00805922 
C736     C      0.549380000000     0.957040000000     0.572500000000    -0.00693164 
C737     C      0.557420000000     0.956360000000     0.603830000000    -0.0780153  
C738     C      0.588740000000     0.455310000000     0.611760000000    -0.00811993 
C739     C      0.866270000000     0.459560000000     0.572580000000    -0.00733073 
C740     C      0.858220000000     0.459490000000     0.603910000000    -0.0784681  
C741     C      0.826890000000     0.459630000000     0.611860000000    -0.0082424  
C742     C      0.804240000000     0.459640000000     0.589210000000    -0.010695   
C743     C      0.812160000000     0.459500000000     0.557880000000    -0.0766105  
C744     C      0.843490000000     0.459560000000     0.549820000000    -0.00845954 
C745     C      0.957250000000     0.572480000000     0.866570000000    -0.00760521 
C746     C      0.957860000000     0.603800000000     0.858510000000    -0.0763445  
C747     C      0.458880000000     0.611710000000     0.827190000000    -0.00951045 
C748     C      0.459290000000     0.589050000000     0.804560000000    -0.00888837 
C749     C      0.958680000000     0.557730000000     0.812500000000    -0.0759845  
C750     C      0.957640000000     0.549700000000     0.843820000000    -0.00727108 
C751     C      0.458210000000     0.843810000000     0.866680000000    -0.00749005 
C752     C      0.958530000000     0.812480000000     0.858610000000    -0.0758485  
C753     C      0.958290000000     0.804560000000     0.827280000000    -0.00850591 
C754     C      0.957720000000     0.827200000000     0.804640000000    -0.00866603 
C755     C      0.457410000000     0.858520000000     0.812580000000    -0.0760594  
C756     C      0.457700000000     0.866580000000     0.843910000000    -0.00752293 
C757     C      0.456170000000     0.804480000000     0.589150000000    -0.00902123 
C758     C      0.456850000000     0.812410000000     0.557820000000    -0.0762693  
C759     C      0.457930000000     0.843720000000     0.549770000000    -0.00765344 
C760     C      0.458320000000     0.866480000000     0.572550000000    -0.00789239 
C761     C      0.457670000000     0.858430000000     0.603880000000    -0.0766525  
C762     C      0.456590000000     0.827110000000     0.611800000000    -0.00949468 
C763     C      0.957830000000     0.549630000000     0.572480000000    -0.00790705 
C764     C      0.957720000000     0.557690000000     0.603820000000    -0.0766221  
C765     C      0.957880000000     0.589020000000     0.611750000000    -0.00922646 
C766     C      0.458140000000     0.611660000000     0.589110000000    -0.00949982 
C767     C      0.458230000000     0.603730000000     0.557780000000    -0.0769739  
C768     C      0.458090000000     0.572410000000     0.549720000000    -0.00808729 
H1       H      0.410540000000     0.005090000000     0.252020000000     0.206624   
H2       H      0.005580000000     0.005900000000     0.162290000000     0.196284   
H3       H      0.005240000000     0.411140000000     0.252020000000     0.206739   
H4       H      0.410120000000     0.410250000000     0.162380000000     0.204678   
H5       H      0.013050000000     0.057750000000     0.205130000000     0.121907   
H6       H      0.062360000000     0.014920000000     0.204930000000     0.182062   
H7       H      0.052750000000     0.404410000000     0.190690000000     0.148483   
H8       H      0.008580000000     0.352730000000     0.227910000000     0.200051   
H9       H      0.402710000000     0.358400000000     0.205120000000     0.12623    
H10      H      0.353370000000     0.401260000000     0.205150000000     0.186748   
H11      H      0.362990000000     0.011740000000     0.190600000000     0.147829   
H12      H      0.407230000000     0.063470000000     0.227990000000     0.200105   
H13      H      0.011260000000     0.355750000000     0.189690000000     0.203308   
H14      H      0.329970000000     0.431620000000     0.208580000000     0.203847   
H15      H      0.404450000000     0.060450000000     0.189770000000     0.203429   
H16      H      0.085760000000     0.984570000000     0.208400000000     0.203565   
H17      H      0.005170000000     0.251880000000     0.005230000000     0.202852   
H18      H      0.410230000000     0.162240000000     0.006060000000     0.200975   
H19      H      0.410530000000     0.251890000000     0.411180000000     0.210791   
H20      H      0.005550000000     0.162330000000     0.410260000000     0.200974   
H21      H      0.402700000000     0.205000000000     0.057860000000     0.125526   
H22      H      0.353360000000     0.205440000000     0.015030000000     0.182272   
H23      H      0.362930000000     0.189870000000     0.404750000000     0.148516   
H24      H      0.407280000000     0.227900000000     0.352680000000     0.20062    
H25      H      0.013030000000     0.204980000000     0.358470000000     0.122421   
H26      H      0.062390000000     0.205710000000     0.401320000000     0.186259   
H27      H      0.052810000000     0.189730000000     0.011550000000     0.147683   
H28      H      0.008390000000     0.227960000000     0.063710000000     0.199478   
H29      H      0.404360000000     0.189710000000     0.355950000000     0.203748   
H30      H      0.085780000000     0.208780000000     0.431720000000     0.20293    
H31      H      0.011430000000     0.189790000000     0.060410000000     0.202752   
H32      H      0.329970000000     0.208590000000     0.984640000000     0.20243    
H33      H      0.164040000000     0.005410000000     0.005240000000     0.202521   
H34      H      0.253690000000     0.410520000000     0.006210000000     0.20058    
H35      H      0.164040000000     0.410850000000     0.411140000000     0.210513   
H36      H      0.253790000000     0.005660000000     0.410250000000     0.200607   
H37      H      0.210880000000     0.402940000000     0.057880000000     0.125363   
H38      H      0.210080000000     0.353620000000     0.015100000000     0.182374   
H39      H      0.226360000000     0.363190000000     0.404890000000     0.148887   
H40      H      0.187350000000     0.407980000000     0.352510000000     0.200362   
H41      H      0.210620000000     0.013310000000     0.358580000000     0.122213   
H42      H      0.210490000000     0.062590000000     0.401340000000     0.185786   
H43      H      0.226230000000     0.053040000000     0.011580000000     0.147021   
H44      H      0.187470000000     0.008330000000     0.063880000000     0.198737   
H45      H      0.225460000000     0.404270000000     0.356030000000     0.203598   
H46      H      0.207310000000     0.085970000000     0.431730000000     0.202825   
H47      H      0.225580000000     0.011910000000     0.060360000000     0.202058   
H48      H      0.207250000000     0.330230000000     0.984680000000     0.20254    
H49      H      0.319710000000     0.280750000000     0.461600000000     0.0427881  
H50      H      0.390170000000     0.350720000000     0.456980000000     0.0462076  
H51      H      0.350510000000     0.390350000000     0.456320000000     0.0458026  
H52      H      0.280470000000     0.319960000000     0.460920000000     0.0407007  
H53      H      0.390240000000     0.065410000000     0.957940000000     0.0456433  
H54      H      0.319710000000     0.135470000000     0.457820000000     0.0403521  
H55      H      0.280490000000     0.096240000000     0.458220000000     0.0402846  
H56      H      0.350600000000     0.025760000000     0.958320000000     0.0450874  
H57      H      0.065120000000     0.390490000000     0.958620000000     0.0462005  
H58      H      0.135220000000     0.320000000000     0.458570000000     0.043406   
H59      H      0.096010000000     0.280780000000     0.457570000000     0.043289   
H60      H      0.025470000000     0.350830000000     0.957650000000     0.0456351  
H61      H      0.096050000000     0.135500000000     0.955780000000     0.0410875  
H62      H      0.025610000000     0.065500000000     0.960210000000     0.044982   
H63      H      0.065230000000     0.025830000000     0.959550000000     0.0453267  
H64      H      0.135260000000     0.096250000000     0.955080000000     0.0429998  
H65      H      0.319780000000     0.453480000000     0.280920000000     0.0437172  
H66      H      0.390220000000     0.958220000000     0.350920000000     0.0464427  
H67      H      0.350560000000     0.958510000000     0.390560000000     0.0462275  
H68      H      0.280550000000     0.453770000000     0.320140000000     0.045532   
H69      H      0.095920000000     0.464530000000     0.280920000000     0.0436176  
H70      H      0.025620000000     0.456900000000     0.350810000000     0.0451287  
H71      H      0.065280000000     0.456870000000     0.390450000000     0.045774   
H72      H      0.135160000000     0.464480000000     0.320150000000     0.0464907  
H73      H      0.135190000000     0.954450000000     0.096350000000     0.0459691  
H74      H      0.065160000000     0.457600000000     0.025850000000     0.0446674  
H75      H      0.025500000000     0.457840000000     0.065500000000     0.0441037  
H76      H      0.095950000000     0.954690000000     0.135570000000     0.0417435  
H77      H      0.390150000000     0.959470000000     0.065570000000     0.0457575  
H78      H      0.319670000000     0.959640000000     0.135680000000     0.0418118  
H79      H      0.280420000000     0.959660000000     0.096450000000     0.0457328  
H80      H      0.350500000000     0.959490000000     0.025930000000     0.0454729  
H81      H      0.456470000000     0.065490000000     0.390450000000     0.0455077  
H82      H      0.959390000000     0.135510000000     0.319950000000     0.0469692  
H83      H      0.960050000000     0.096270000000     0.280750000000     0.046817   
H84      H      0.457120000000     0.025820000000     0.350830000000     0.0450832  
H85      H      0.958370000000     0.350810000000     0.390560000000     0.0465758  
H86      H      0.458460000000     0.280750000000     0.320040000000     0.0464043  
H87      H      0.457580000000     0.319970000000     0.280830000000     0.0464351  
H88      H      0.957490000000     0.390460000000     0.350920000000     0.046605   
H89      H      0.955380000000     0.280680000000     0.096370000000     0.0469494  
H90      H      0.958500000000     0.350720000000     0.025900000000     0.0456657  
H91      H      0.959140000000     0.390350000000     0.065560000000     0.0461091  
H92      H      0.956030000000     0.319880000000     0.135610000000     0.0471131  
H93      H      0.457730000000     0.025750000000     0.065480000000     0.0442641  
H94      H      0.457810000000     0.096250000000     0.135570000000     0.0462314  
H95      H      0.958240000000     0.135470000000     0.096350000000     0.0466985  
H96      H      0.958130000000     0.065410000000     0.025830000000     0.0447524  
H97      H      0.410540000000     0.005090000000     0.752020000000     0.206613   
H98      H      0.005580000000     0.005900000000     0.662290000000     0.196297   
H99      H      0.005240000000     0.411140000000     0.752020000000     0.206722   
H100     H      0.410120000000     0.410250000000     0.662380000000     0.204718   
H101     H      0.013050000000     0.057750000000     0.705130000000     0.121917   
H102     H      0.062360000000     0.014920000000     0.704930000000     0.182079   
H103     H      0.052750000000     0.404410000000     0.690690000000     0.148524   
H104     H      0.008580000000     0.352730000000     0.727910000000     0.200053   
H105     H      0.402710000000     0.358400000000     0.705120000000     0.126254   
H106     H      0.353370000000     0.401260000000     0.705150000000     0.186779   
H107     H      0.362990000000     0.011740000000     0.690600000000     0.147915   
H108     H      0.407230000000     0.063470000000     0.727990000000     0.200108   
H109     H      0.011260000000     0.355750000000     0.689690000000     0.203353   
H110     H      0.329970000000     0.431620000000     0.708580000000     0.203864   
H111     H      0.404450000000     0.060450000000     0.689770000000     0.203474   
H112     H      0.085760000000     0.984570000000     0.708400000000     0.203578   
H113     H      0.005170000000     0.251880000000     0.505230000000     0.206758   
H114     H      0.410230000000     0.162240000000     0.506060000000     0.205025   
H115     H      0.410530000000     0.251890000000     0.911180000000     0.210764   
H116     H      0.005550000000     0.162330000000     0.910260000000     0.200983   
H117     H      0.402700000000     0.204990000000     0.557860000000     0.125958   
H118     H      0.353360000000     0.205440000000     0.515030000000     0.186278   
H119     H      0.362930000000     0.189870000000     0.904750000000     0.148501   
H120     H      0.407290000000     0.227890000000     0.852680000000     0.200915   
H121     H      0.013030000000     0.204970000000     0.858470000000     0.122373   
H122     H      0.062390000000     0.205710000000     0.901320000000     0.186038   
H123     H      0.052810000000     0.189730000000     0.511550000000     0.148463   
H124     H      0.008390000000     0.227960000000     0.563710000000     0.199755   
H125     H      0.404360000000     0.189710000000     0.855950000000     0.203841   
H126     H      0.085780000000     0.208780000000     0.931720000000     0.203371   
H127     H      0.011430000000     0.189790000000     0.560410000000     0.203227   
H128     H      0.329970000000     0.208590000000     0.484640000000     0.202867   
H129     H      0.164040000000     0.005410000000     0.505240000000     0.206423   
H130     H      0.253690000000     0.410520000000     0.506210000000     0.204641   
H131     H      0.164040000000     0.410850000000     0.911140000000     0.210509   
H132     H      0.253790000000     0.005660000000     0.910250000000     0.200609   
H133     H      0.210880000000     0.402940000000     0.557880000000     0.125906   
H134     H      0.210080000000     0.353620000000     0.515100000000     0.186402   
H135     H      0.226360000000     0.363190000000     0.904890000000     0.148871   
H136     H      0.187360000000     0.407980000000     0.852510000000     0.200557   
H137     H      0.210620000000     0.013310000000     0.858580000000     0.122185   
H138     H      0.210490000000     0.062590000000     0.901340000000     0.185785   
H139     H      0.226230000000     0.053040000000     0.511580000000     0.147809   
H140     H      0.187470000000     0.008330000000     0.563880000000     0.199009   
H141     H      0.225460000000     0.404270000000     0.856030000000     0.20364    
H142     H      0.207310000000     0.085970000000     0.931730000000     0.203234   
H143     H      0.225580000000     0.011910000000     0.560360000000     0.202534   
H144     H      0.207250000000     0.330230000000     0.484680000000     0.203188   
H145     H      0.319710000000     0.280750000000     0.961600000000     0.0431175  
H146     H      0.390170000000     0.350720000000     0.956980000000     0.0467106  
H147     H      0.350510000000     0.390350000000     0.956320000000     0.0462997  
H148     H      0.280470000000     0.319960000000     0.960920000000     0.0410426  
H149     H      0.390240000000     0.065410000000     0.457940000000     0.0451256  
H150     H      0.319710000000     0.135470000000     0.957820000000     0.0406575  
H151     H      0.280490000000     0.096240000000     0.958210000000     0.040721   
H152     H      0.350600000000     0.025760000000     0.458320000000     0.0445443  
H153     H      0.065120000000     0.390490000000     0.458620000000     0.0456892  
H154     H      0.135220000000     0.320000000000     0.958570000000     0.0437184  
H155     H      0.096010000000     0.280780000000     0.957570000000     0.0437164  
H156     H      0.025470000000     0.350830000000     0.457650000000     0.0450969  
H157     H      0.096050000000     0.135500000000     0.455780000000     0.0406723  
H158     H      0.025610000000     0.065500000000     0.460210000000     0.0444182  
H159     H      0.065230000000     0.025830000000     0.459550000000     0.0447705  
H160     H      0.135260000000     0.096250000000     0.455090000000     0.0425968  
H161     H      0.319780000000     0.453480000000     0.780920000000     0.0437043  
H162     H      0.390220000000     0.958220000000     0.850920000000     0.0465117  
H163     H      0.350560000000     0.958510000000     0.890560000000     0.0463902  
H164     H      0.280550000000     0.453770000000     0.820140000000     0.0455183  
H165     H      0.095920000000     0.464530000000     0.780920000000     0.0435925  
H166     H      0.025620000000     0.456900000000     0.850810000000     0.0451934  
H167     H      0.065280000000     0.456870000000     0.890450000000     0.0459395  
H168     H      0.135160000000     0.464480000000     0.820150000000     0.0464831  
H169     H      0.135190000000     0.954450000000     0.596350000000     0.0460602  
H170     H      0.065160000000     0.457600000000     0.525850000000     0.0456282  
H171     H      0.025500000000     0.457840000000     0.565500000000     0.0444761  
H172     H      0.095950000000     0.954690000000     0.635570000000     0.0417659  
H173     H      0.390150000000     0.959470000000     0.565570000000     0.0461366  
H174     H      0.319670000000     0.959640000000     0.635680000000     0.0418356  
H175     H      0.280420000000     0.959660000000     0.596450000000     0.0458281  
H176     H      0.350500000000     0.959490000000     0.525930000000     0.0464369  
H177     H      0.456470000000     0.065490000000     0.890450000000     0.0456686  
H178     H      0.959390000000     0.135510000000     0.819950000000     0.0469573  
H179     H      0.960050000000     0.096270000000     0.780750000000     0.0468036  
H180     H      0.457120000000     0.025820000000     0.850830000000     0.0451517  
H181     H      0.958370000000     0.350810000000     0.890560000000     0.0467383  
H182     H      0.458460000000     0.280750000000     0.820040000000     0.0463695  
H183     H      0.457580000000     0.319970000000     0.780830000000     0.04643    
H184     H      0.957490000000     0.390460000000     0.850920000000     0.0466748  
H185     H      0.955380000000     0.280680000000     0.596370000000     0.0470485  
H186     H      0.958500000000     0.350720000000     0.525900000000     0.0466568  
H187     H      0.959140000000     0.390350000000     0.565560000000     0.0464805  
H188     H      0.956030000000     0.319880000000     0.635610000000     0.0471354  
H189     H      0.457730000000     0.025750000000     0.565480000000     0.0446353  
H190     H      0.457810000000     0.096250000000     0.635570000000     0.046251   
H191     H      0.958240000000     0.135470000000     0.596350000000     0.0467812  
H192     H      0.958130000000     0.065410000000     0.525830000000     0.0457112  
H193     H      0.410540000000     0.505090000000     0.252020000000     0.210563   
H194     H      0.005580000000     0.505900000000     0.162290000000     0.200319   
H195     H      0.005240000000     0.911140000000     0.252020000000     0.206734   
H196     H      0.410120000000     0.910250000000     0.162380000000     0.204683   
H197     H      0.013050000000     0.557750000000     0.205130000000     0.122446   
H198     H      0.062370000000     0.514920000000     0.204930000000     0.186098   
H199     H      0.052750000000     0.904410000000     0.190690000000     0.148469   
H200     H      0.008580000000     0.852730000000     0.227910000000     0.200033   
H201     H      0.402710000000     0.858400000000     0.205120000000     0.126204   
H202     H      0.353370000000     0.901260000000     0.205150000000     0.186764   
H203     H      0.362990000000     0.511740000000     0.190600000000     0.148661   
H204     H      0.407230000000     0.563470000000     0.227990000000     0.200385   
H205     H      0.011260000000     0.855750000000     0.189690000000     0.203283   
H206     H      0.329970000000     0.931610000000     0.208580000000     0.204348   
H207     H      0.404450000000     0.560450000000     0.189770000000     0.203912   
H208     H      0.085760000000     0.484570000000     0.208400000000     0.203997   
H209     H      0.005170000000     0.751880000000     0.005230000000     0.202821   
H210     H      0.410230000000     0.662240000000     0.006060000000     0.201004   
H211     H      0.410530000000     0.751890000000     0.411180000000     0.210771   
H212     H      0.005550000000     0.662330000000     0.410260000000     0.201159   
H213     H      0.402700000000     0.705000000000     0.057860000000     0.125546   
H214     H      0.353360000000     0.705440000000     0.015030000000     0.182292   
H215     H      0.362930000000     0.689870000000     0.404750000000     0.148552   
H216     H      0.407280000000     0.727900000000     0.352680000000     0.200636   
H217     H      0.013030000000     0.704980000000     0.358470000000     0.122439   
H218     H      0.062390000000     0.705710000000     0.401320000000     0.186286   
H219     H      0.052810000000     0.689730000000     0.011550000000     0.147723   
H220     H      0.008390000000     0.727960000000     0.063710000000     0.19948    
H221     H      0.404360000000     0.689710000000     0.355950000000     0.203804   
H222     H      0.085780000000     0.708790000000     0.431720000000     0.202937   
H223     H      0.011430000000     0.689790000000     0.060410000000     0.202792   
H224     H      0.329970000000     0.708590000000     0.984640000000     0.202444   
H225     H      0.164040000000     0.505410000000     0.005240000000     0.206401   
H226     H      0.253690000000     0.910520000000     0.006210000000     0.200583   
H227     H      0.164040000000     0.910850000000     0.411140000000     0.210509   
H228     H      0.253790000000     0.505660000000     0.410250000000     0.204658   
H229     H      0.210880000000     0.902940000000     0.057880000000     0.125257   
H230     H      0.210080000000     0.853620000000     0.015100000000     0.182372   
H231     H      0.226360000000     0.863190000000     0.404890000000     0.148867   
H232     H      0.187360000000     0.907980000000     0.352510000000     0.200593   
H233     H      0.210620000000     0.513310000000     0.358580000000     0.12603    
H234     H      0.210490000000     0.562590000000     0.401340000000     0.186243   
H235     H      0.226230000000     0.553040000000     0.011580000000     0.147551   
H236     H      0.187470000000     0.508330000000     0.063880000000     0.19956    
H237     H      0.225460000000     0.904270000000     0.356030000000     0.203668   
H238     H      0.207310000000     0.585980000000     0.431730000000     0.20252    
H239     H      0.225580000000     0.511910000000     0.060360000000     0.202919   
H240     H      0.207250000000     0.830230000000     0.984680000000     0.202735   
H241     H      0.319710000000     0.780750000000     0.461600000000     0.0427685  
H242     H      0.390170000000     0.850720000000     0.456980000000     0.046263   
H243     H      0.350510000000     0.890350000000     0.456320000000     0.0459684  
H244     H      0.280470000000     0.819960000000     0.460920000000     0.0406914  
H245     H      0.390240000000     0.565410000000     0.957940000000     0.0460222  
H246     H      0.319710000000     0.635470000000     0.457820000000     0.0403576  
H247     H      0.280490000000     0.596240000000     0.458220000000     0.0403712  
H248     H      0.350600000000     0.525760000000     0.958320000000     0.046054   
H249     H      0.065120000000     0.890480000000     0.958620000000     0.0463886  
H250     H      0.135220000000     0.820000000000     0.458570000000     0.0433959  
H251     H      0.096010000000     0.780780000000     0.457570000000     0.0432715  
H252     H      0.025470000000     0.850830000000     0.957650000000     0.0456778  
H253     H      0.096050000000     0.635500000000     0.955780000000     0.0411082  
H254     H      0.025610000000     0.565500000000     0.960210000000     0.0453564  
H255     H      0.065230000000     0.525830000000     0.959550000000     0.0462899  
H256     H      0.135260000000     0.596250000000     0.955080000000     0.043102   
H257     H      0.319780000000     0.953480000000     0.280920000000     0.0441051  
H258     H      0.390220000000     0.458220000000     0.350920000000     0.0458849  
H259     H      0.350560000000     0.458510000000     0.390560000000     0.0456747  
H260     H      0.280550000000     0.953770000000     0.320140000000     0.045803   
H261     H      0.095920000000     0.964530000000     0.280920000000     0.0439615  
H262     H      0.025620000000     0.956900000000     0.350810000000     0.045618   
H263     H      0.065280000000     0.956870000000     0.390450000000     0.0462631  
H264     H      0.135160000000     0.964480000000     0.320150000000     0.0468096  
H265     H      0.135190000000     0.454450000000     0.096350000000     0.0455347  
H266     H      0.065160000000     0.957590000000     0.025850000000     0.0452185  
H267     H      0.025500000000     0.957840000000     0.065500000000     0.0446437  
H268     H      0.095950000000     0.454690000000     0.135570000000     0.041436   
H269     H      0.390150000000     0.459470000000     0.065570000000     0.0452165  
H270     H      0.319670000000     0.459640000000     0.135680000000     0.0413573  
H271     H      0.280420000000     0.459670000000     0.096450000000     0.0452641  
H272     H      0.350500000000     0.459490000000     0.025930000000     0.0449329  
H273     H      0.456470000000     0.565490000000     0.390450000000     0.0458873  
H274     H      0.959390000000     0.635510000000     0.319950000000     0.0469949  
H275     H      0.960050000000     0.596270000000     0.280750000000     0.0469067  
H276     H      0.457120000000     0.525820000000     0.350830000000     0.0460525  
H277     H      0.958370000000     0.850810000000     0.390560000000     0.0466513  
H278     H      0.458460000000     0.780750000000     0.320040000000     0.0463831  
H279     H      0.457580000000     0.819970000000     0.280830000000     0.0464131  
H280     H      0.957490000000     0.890460000000     0.350920000000     0.0467506  
H281     H      0.955380000000     0.780680000000     0.096370000000     0.0469372  
H282     H      0.958500000000     0.850720000000     0.025900000000     0.0457318  
H283     H      0.959140000000     0.890350000000     0.065560000000     0.04627    
H284     H      0.956030000000     0.819880000000     0.135610000000     0.0471     
H285     H      0.457730000000     0.525750000000     0.065480000000     0.0452268  
H286     H      0.457810000000     0.596250000000     0.135570000000     0.0463306  
H287     H      0.958240000000     0.635470000000     0.096350000000     0.04671    
H288     H      0.958130000000     0.565410000000     0.025830000000     0.0451209  
H289     H      0.410540000000     0.505090000000     0.752020000000     0.210552   
H290     H      0.005580000000     0.505900000000     0.662290000000     0.200342   
H291     H      0.005240000000     0.911140000000     0.752020000000     0.206718   
H292     H      0.410120000000     0.910250000000     0.662380000000     0.204723   
H293     H      0.013050000000     0.557750000000     0.705130000000     0.122455   
H294     H      0.062360000000     0.514920000000     0.704930000000     0.186088   
H295     H      0.052750000000     0.904410000000     0.690690000000     0.14851    
H296     H      0.008580000000     0.852730000000     0.727910000000     0.200035   
H297     H      0.402710000000     0.858400000000     0.705120000000     0.126228   
H298     H      0.353370000000     0.901260000000     0.705150000000     0.186797   
H299     H      0.362990000000     0.511740000000     0.690600000000     0.148701   
H300     H      0.407230000000     0.563470000000     0.727990000000     0.200389   
H301     H      0.011260000000     0.855750000000     0.689690000000     0.203328   
H302     H      0.329970000000     0.931610000000     0.708580000000     0.204364   
H303     H      0.404450000000     0.560450000000     0.689770000000     0.203959   
H304     H      0.085760000000     0.484570000000     0.708400000000     0.204014   
H305     H      0.005170000000     0.751880000000     0.505230000000     0.206748   
H306     H      0.410230000000     0.662240000000     0.506060000000     0.205065   
H307     H      0.410530000000     0.751880000000     0.911180000000     0.210914   
H308     H      0.005550000000     0.662330000000     0.910260000000     0.20114    
H309     H      0.402700000000     0.704990000000     0.557860000000     0.125979   
H310     H      0.353360000000     0.705440000000     0.515030000000     0.186307   
H311     H      0.362930000000     0.689870000000     0.904750000000     0.14854    
H312     H      0.407290000000     0.727900000000     0.852680000000     0.2007     
H313     H      0.013030000000     0.704980000000     0.858470000000     0.122421   
H314     H      0.062390000000     0.705710000000     0.901320000000     0.186088   
H315     H      0.052810000000     0.689730000000     0.511550000000     0.148498   
H316     H      0.008390000000     0.727960000000     0.563710000000     0.199758   
H317     H      0.404360000000     0.689710000000     0.855950000000     0.203822   
H318     H      0.085780000000     0.708780000000     0.931720000000     0.203405   
H319     H      0.011430000000     0.689790000000     0.560410000000     0.203269   
H320     H      0.329970000000     0.708590000000     0.484640000000     0.20288    
H321     H      0.164040000000     0.505410000000     0.505240000000     0.210327   
H322     H      0.253690000000     0.910520000000     0.506210000000     0.204648   
H323     H      0.164040000000     0.910850000000     0.911140000000     0.210494   
H324     H      0.253790000000     0.505660000000     0.910250000000     0.204661   
H325     H      0.210880000000     0.902940000000     0.557880000000     0.125803   
H326     H      0.210080000000     0.853620000000     0.515100000000     0.18638    
H327     H      0.226360000000     0.863190000000     0.904890000000     0.148853   
H328     H      0.187360000000     0.907980000000     0.852510000000     0.20057    
H329     H      0.210620000000     0.513310000000     0.858580000000     0.126003   
H330     H      0.210490000000     0.562590000000     0.901340000000     0.186241   
H331     H      0.226230000000     0.553040000000     0.511580000000     0.148344   
H332     H      0.187470000000     0.508330000000     0.563880000000     0.199836   
H333     H      0.225460000000     0.904270000000     0.856030000000     0.203648   
H334     H      0.207310000000     0.585980000000     0.931730000000     0.20293    
H335     H      0.225580000000     0.511910000000     0.560360000000     0.2034     
H336     H      0.207250000000     0.830230000000     0.484680000000     0.20317    
H337     H      0.319710000000     0.780750000000     0.961600000000     0.0431003  
H338     H      0.390170000000     0.850720000000     0.956980000000     0.0467717  
H339     H      0.350510000000     0.890360000000     0.956320000000     0.0464482  
H340     H      0.280470000000     0.819960000000     0.960920000000     0.0410289  
H341     H      0.390240000000     0.565410000000     0.457940000000     0.0454967  
H342     H      0.319710000000     0.635470000000     0.957820000000     0.0406792  
H343     H      0.280490000000     0.596240000000     0.958210000000     0.0408055  
H344     H      0.350600000000     0.525760000000     0.458320000000     0.0455132  
H345     H      0.065120000000     0.890480000000     0.458620000000     0.0458602  
H346     H      0.135220000000     0.820000000000     0.958570000000     0.0437095  
H347     H      0.096010000000     0.780780000000     0.957570000000     0.0436948  
H348     H      0.025470000000     0.850830000000     0.457650000000     0.0451492  
H349     H      0.096050000000     0.635500000000     0.455780000000     0.0407015  
H350     H      0.025610000000     0.565500000000     0.460210000000     0.0447941  
H351     H      0.065230000000     0.525830000000     0.459550000000     0.0457347  
H352     H      0.135260000000     0.596250000000     0.455090000000     0.0426984  
H353     H      0.319780000000     0.953480000000     0.780920000000     0.0440917  
H354     H      0.390220000000     0.458220000000     0.850920000000     0.045954   
H355     H      0.350560000000     0.458510000000     0.890560000000     0.0458383  
H356     H      0.280550000000     0.953770000000     0.820140000000     0.04579    
H357     H      0.095920000000     0.964530000000     0.780920000000     0.0439362  
H358     H      0.025620000000     0.956900000000     0.850810000000     0.0456823  
H359     H      0.065280000000     0.956870000000     0.890450000000     0.0464284  
H360     H      0.135160000000     0.964480000000     0.820150000000     0.0468046  
H361     H      0.135190000000     0.454450000000     0.596350000000     0.0456237  
H362     H      0.065160000000     0.957590000000     0.525850000000     0.0461807  
H363     H      0.025500000000     0.957840000000     0.565500000000     0.0450171  
H364     H      0.095950000000     0.454680000000     0.635570000000     0.0414593  
H365     H      0.390150000000     0.459470000000     0.565570000000     0.0455978  
H366     H      0.319670000000     0.459640000000     0.635680000000     0.041391   
H367     H      0.280420000000     0.459660000000     0.596450000000     0.0453402  
H368     H      0.350500000000     0.459490000000     0.525930000000     0.0458912  
H369     H      0.456470000000     0.565490000000     0.890450000000     0.0460494  
H370     H      0.959390000000     0.635510000000     0.819950000000     0.0469796  
H371     H      0.960050000000     0.596270000000     0.780750000000     0.0468936  
H372     H      0.457120000000     0.525820000000     0.850830000000     0.0461215  
H373     H      0.958370000000     0.850810000000     0.890560000000     0.0468123  
H374     H      0.458460000000     0.780750000000     0.820040000000     0.0463668  
H375     H      0.457580000000     0.819970000000     0.780830000000     0.0464013  
H376     H      0.957490000000     0.890460000000     0.850920000000     0.0468207  
H377     H      0.955380000000     0.780680000000     0.596370000000     0.0470365  
H378     H      0.958500000000     0.850720000000     0.525900000000     0.0467241  
H379     H      0.959140000000     0.890350000000     0.565560000000     0.0466417  
H380     H      0.956030000000     0.819880000000     0.635610000000     0.0471222  
H381     H      0.457730000000     0.525750000000     0.565480000000     0.0456008  
H382     H      0.457810000000     0.596250000000     0.635570000000     0.0463479  
H383     H      0.958240000000     0.635470000000     0.596350000000     0.0468002  
H384     H      0.958130000000     0.565410000000     0.525830000000     0.0460995  
H385     H      0.910540000000     0.005090000000     0.252020000000     0.206614   
H386     H      0.505580000000     0.005900000000     0.162290000000     0.200334   
H387     H      0.505240000000     0.411140000000     0.252020000000     0.21069    
H388     H      0.910120000000     0.410250000000     0.162380000000     0.204683   
H389     H      0.513050000000     0.057750000000     0.205130000000     0.125601   
H390     H      0.562370000000     0.014920000000     0.204930000000     0.182647   
H391     H      0.552750000000     0.404410000000     0.190690000000     0.149059   
H392     H      0.508580000000     0.352730000000     0.227910000000     0.200884   
H393     H      0.902710000000     0.358400000000     0.205120000000     0.126125   
H394     H      0.853370000000     0.401260000000     0.205150000000     0.186739   
H395     H      0.862990000000     0.011740000000     0.190600000000     0.147811   
H396     H      0.907220000000     0.063470000000     0.227990000000     0.200027   
H397     H      0.511260000000     0.355750000000     0.189690000000     0.204179   
H398     H      0.829970000000     0.431610000000     0.208580000000     0.203919   
H399     H      0.904450000000     0.060450000000     0.189770000000     0.203401   
H400     H      0.585760000000     0.984570000000     0.208400000000     0.203702   
H401     H      0.505170000000     0.251880000000     0.005230000000     0.206744   
H402     H      0.910220000000     0.162240000000     0.006060000000     0.200826   
H403     H      0.910530000000     0.251890000000     0.411180000000     0.210787   
H404     H      0.505550000000     0.162330000000     0.410260000000     0.20504    
H405     H      0.902690000000     0.204990000000     0.057860000000     0.125274   
H406     H      0.853360000000     0.205440000000     0.015030000000     0.182251   
H407     H      0.862930000000     0.189870000000     0.404750000000     0.148493   
H408     H      0.907280000000     0.227890000000     0.352680000000     0.200867   
H409     H      0.513030000000     0.204970000000     0.358470000000     0.126231   
H410     H      0.562390000000     0.205710000000     0.401320000000     0.186843   
H411     H      0.552810000000     0.189730000000     0.011550000000     0.148222   
H412     H      0.508390000000     0.227960000000     0.063710000000     0.200296   
H413     H      0.904360000000     0.189710000000     0.355950000000     0.203833   
H414     H      0.585780000000     0.208780000000     0.431720000000     0.203087   
H415     H      0.511430000000     0.189790000000     0.060410000000     0.203627   
H416     H      0.829970000000     0.208590000000     0.984640000000     0.202415   
H417     H      0.664040000000     0.005410000000     0.005240000000     0.202539   
H418     H      0.753690000000     0.410520000000     0.006210000000     0.200567   
H419     H      0.664040000000     0.410850000000     0.411140000000     0.210545   
H420     H      0.753790000000     0.005660000000     0.410250000000     0.200596   
H421     H      0.710880000000     0.402940000000     0.057880000000     0.125374   
H422     H      0.710080000000     0.353620000000     0.015100000000     0.182386   
H423     H      0.726360000000     0.363190000000     0.404890000000     0.148878   
H424     H      0.687360000000     0.407980000000     0.352510000000     0.200626   
H425     H      0.710620000000     0.013310000000     0.358580000000     0.122232   
H426     H      0.710490000000     0.062590000000     0.401340000000     0.185814   
H427     H      0.726230000000     0.053040000000     0.011580000000     0.147013   
H428     H      0.687470000000     0.008330000000     0.063880000000     0.198784   
H429     H      0.725460000000     0.404270000000     0.356030000000     0.203666   
H430     H      0.707310000000     0.085970000000     0.431730000000     0.202842   
H431     H      0.725580000000     0.011910000000     0.060360000000     0.202063   
H432     H      0.707250000000     0.330230000000     0.984680000000     0.202553   
H433     H      0.819710000000     0.280750000000     0.461600000000     0.0427679  
H434     H      0.890170000000     0.350720000000     0.456980000000     0.0463683  
H435     H      0.850510000000     0.390350000000     0.456320000000     0.0458745  
H436     H      0.780470000000     0.319960000000     0.460920000000     0.0407001  
H437     H      0.890240000000     0.065410000000     0.957940000000     0.0458159  
H438     H      0.819710000000     0.135470000000     0.457820000000     0.0403398  
H439     H      0.780490000000     0.096240000000     0.458220000000     0.0402719  
H440     H      0.850600000000     0.025760000000     0.958320000000     0.0451531  
H441     H      0.565120000000     0.390490000000     0.958620000000     0.0466018  
H442     H      0.635220000000     0.320000000000     0.458570000000     0.0434285  
H443     H      0.596010000000     0.280780000000     0.457570000000     0.043374   
H444     H      0.525470000000     0.350830000000     0.957650000000     0.0466011  
H445     H      0.596050000000     0.135500000000     0.955780000000     0.0411621  
H446     H      0.525610000000     0.065500000000     0.960210000000     0.0459497  
H447     H      0.565230000000     0.025830000000     0.959550000000     0.0457073  
H448     H      0.635260000000     0.096250000000     0.955080000000     0.043024   
H449     H      0.819780000000     0.453480000000     0.280920000000     0.0437189  
H450     H      0.890220000000     0.958220000000     0.350920000000     0.0466197  
H451     H      0.850560000000     0.958510000000     0.390560000000     0.04629    
H452     H      0.780540000000     0.453770000000     0.320140000000     0.0454884  
H453     H      0.595920000000     0.464530000000     0.280920000000     0.0437088  
H454     H      0.525620000000     0.456900000000     0.350810000000     0.0460925  
H455     H      0.565280000000     0.456870000000     0.390450000000     0.0461728  
H456     H      0.635160000000     0.464480000000     0.320150000000     0.0464985  
H457     H      0.635190000000     0.954450000000     0.096350000000     0.0459886  
H458     H      0.565160000000     0.457600000000     0.025850000000     0.0450413  
H459     H      0.525500000000     0.457840000000     0.065500000000     0.0450688  
H460     H      0.595950000000     0.954690000000     0.135570000000     0.0418196  
H461     H      0.890160000000     0.959470000000     0.065570000000     0.0459136  
H462     H      0.819660000000     0.959640000000     0.135680000000     0.0417878  
H463     H      0.780420000000     0.959660000000     0.096450000000     0.0457147  
H464     H      0.850500000000     0.959490000000     0.025930000000     0.0455158  
H465     H      0.956470000000     0.065490000000     0.390450000000     0.0460189  
H466     H      0.459390000000     0.135510000000     0.319950000000     0.0466655  
H467     H      0.460050000000     0.096270000000     0.280750000000     0.0465219  
H468     H      0.957110000000     0.025820000000     0.350830000000     0.0455988  
H469     H      0.458370000000     0.350810000000     0.390560000000     0.0460462  
H470     H      0.958460000000     0.280750000000     0.320040000000     0.0466841  
H471     H      0.957580000000     0.319970000000     0.280830000000     0.0468993  
H472     H      0.457490000000     0.390460000000     0.350920000000     0.046065   
H473     H      0.455380000000     0.280680000000     0.096370000000     0.0464988  
H474     H      0.458500000000     0.350720000000     0.025900000000     0.0451129  
H475     H      0.459140000000     0.390350000000     0.065560000000     0.0455493  
H476     H      0.456030000000     0.319880000000     0.135610000000     0.0466656  
H477     H      0.957740000000     0.025750000000     0.065480000000     0.0447921  
H478     H      0.957810000000     0.096250000000     0.135570000000     0.046538   
H479     H      0.458240000000     0.135470000000     0.096350000000     0.0462454  
H480     H      0.458130000000     0.065410000000     0.025830000000     0.0442075  
H481     H      0.910540000000     0.005090000000     0.752020000000     0.206599   
H482     H      0.505580000000     0.005900000000     0.662290000000     0.200358   
H483     H      0.505240000000     0.411140000000     0.752020000000     0.210674   
H484     H      0.910120000000     0.410250000000     0.662380000000     0.204722   
H485     H      0.513050000000     0.057750000000     0.705130000000     0.125619   
H486     H      0.562370000000     0.014920000000     0.704930000000     0.182665   
H487     H      0.552750000000     0.404410000000     0.690690000000     0.149053   
H488     H      0.508580000000     0.352730000000     0.727910000000     0.200887   
H489     H      0.902710000000     0.358400000000     0.705120000000     0.126149   
H490     H      0.853370000000     0.401260000000     0.705150000000     0.186772   
H491     H      0.862990000000     0.011730000000     0.690600000000     0.147918   
H492     H      0.907220000000     0.063470000000     0.727990000000     0.200032   
H493     H      0.511260000000     0.355750000000     0.689690000000     0.204227   
H494     H      0.829970000000     0.431610000000     0.708580000000     0.203937   
H495     H      0.904450000000     0.060450000000     0.689770000000     0.203448   
H496     H      0.585760000000     0.984570000000     0.708400000000     0.203717   
H497     H      0.505170000000     0.251880000000     0.505230000000     0.210676   
H498     H      0.910220000000     0.162240000000     0.506060000000     0.204878   
H499     H      0.910530000000     0.251890000000     0.911180000000     0.210771   
H500     H      0.505550000000     0.162330000000     0.910260000000     0.205029   
H501     H      0.902700000000     0.204990000000     0.557860000000     0.125856   
H502     H      0.853360000000     0.205440000000     0.515030000000     0.186255   
H503     H      0.862930000000     0.189870000000     0.904750000000     0.148483   
H504     H      0.907280000000     0.227890000000     0.852680000000     0.200831   
H505     H      0.513030000000     0.204970000000     0.858470000000     0.126218   
H506     H      0.562390000000     0.205710000000     0.901320000000     0.186841   
H507     H      0.552810000000     0.189730000000     0.511550000000     0.149007   
H508     H      0.508390000000     0.227960000000     0.563710000000     0.200577   
H509     H      0.904360000000     0.189710000000     0.855950000000     0.203796   
H510     H      0.585780000000     0.208780000000     0.931720000000     0.203497   
H511     H      0.511430000000     0.189790000000     0.560410000000     0.204107   
H512     H      0.829970000000     0.208590000000     0.484640000000     0.202849   
H513     H      0.664040000000     0.005410000000     0.505240000000     0.20645    
H514     H      0.753690000000     0.410520000000     0.506210000000     0.204636   
H515     H      0.664040000000     0.410850000000     0.911140000000     0.210543   
H516     H      0.753790000000     0.005660000000     0.910250000000     0.200598   
H517     H      0.710880000000     0.402940000000     0.557880000000     0.125919   
H518     H      0.710080000000     0.353620000000     0.515100000000     0.186422   
H519     H      0.726360000000     0.363190000000     0.904890000000     0.148864   
H520     H      0.687360000000     0.407980000000     0.852510000000     0.200608   
H521     H      0.710620000000     0.013310000000     0.858580000000     0.122205   
H522     H      0.710490000000     0.062590000000     0.901340000000     0.185814   
H523     H      0.726230000000     0.053040000000     0.511580000000     0.147802   
H524     H      0.687470000000     0.008330000000     0.563880000000     0.199056   
H525     H      0.725460000000     0.404270000000     0.856030000000     0.203647   
H526     H      0.707310000000     0.085970000000     0.931730000000     0.203252   
H527     H      0.725580000000     0.011910000000     0.560360000000     0.20254    
H528     H      0.707250000000     0.330230000000     0.484680000000     0.203202   
H529     H      0.819710000000     0.280750000000     0.961600000000     0.0430987  
H530     H      0.890170000000     0.350720000000     0.956980000000     0.0468711  
H531     H      0.850510000000     0.390350000000     0.956320000000     0.0463713  
H532     H      0.780470000000     0.319960000000     0.960920000000     0.0410429  
H533     H      0.890240000000     0.065410000000     0.457940000000     0.0452909  
H534     H      0.819710000000     0.135470000000     0.957820000000     0.0406617  
H535     H      0.780490000000     0.096240000000     0.958210000000     0.0407062  
H536     H      0.850600000000     0.025760000000     0.458320000000     0.0446132  
H537     H      0.565120000000     0.390490000000     0.458620000000     0.0460699  
H538     H      0.635220000000     0.320000000000     0.958570000000     0.0437454  
H539     H      0.596010000000     0.280780000000     0.957570000000     0.043799   
H540     H      0.525470000000     0.350830000000     0.457650000000     0.04607    
H541     H      0.596050000000     0.135500000000     0.455780000000     0.0407475  
H542     H      0.525610000000     0.065500000000     0.460210000000     0.0453849  
H543     H      0.565230000000     0.025830000000     0.459550000000     0.0451503  
H544     H      0.635260000000     0.096250000000     0.455090000000     0.0426199  
H545     H      0.819780000000     0.453480000000     0.780920000000     0.0436997  
H546     H      0.890220000000     0.958220000000     0.850920000000     0.0466891  
H547     H      0.850560000000     0.958510000000     0.890560000000     0.0464531  
H548     H      0.780540000000     0.453770000000     0.820140000000     0.0454881  
H549     H      0.595920000000     0.464530000000     0.780920000000     0.0437     
H550     H      0.525620000000     0.456900000000     0.850810000000     0.0461696  
H551     H      0.565280000000     0.456870000000     0.890450000000     0.0463172  
H552     H      0.635160000000     0.464480000000     0.820150000000     0.0464826  
H553     H      0.635190000000     0.954450000000     0.596350000000     0.0460805  
H554     H      0.565160000000     0.457600000000     0.525850000000     0.0460078  
H555     H      0.525500000000     0.457840000000     0.565500000000     0.0454465  
H556     H      0.595950000000     0.954690000000     0.635570000000     0.0418446  
H557     H      0.890160000000     0.959470000000     0.565570000000     0.0462966  
H558     H      0.819660000000     0.959640000000     0.635680000000     0.0418218  
H559     H      0.780420000000     0.959660000000     0.596450000000     0.0457909  
H560     H      0.850500000000     0.959490000000     0.525930000000     0.0464763  
H561     H      0.956470000000     0.065490000000     0.890450000000     0.0461811  
H562     H      0.459390000000     0.135510000000     0.819950000000     0.0466472  
H563     H      0.460050000000     0.096270000000     0.780750000000     0.0465091  
H564     H      0.957110000000     0.025820000000     0.850830000000     0.0456668  
H565     H      0.458370000000     0.350810000000     0.890560000000     0.0462048  
H566     H      0.958460000000     0.280750000000     0.820040000000     0.0466735  
H567     H      0.957590000000     0.319970000000     0.780830000000     0.0468862  
H568     H      0.457490000000     0.390460000000     0.850920000000     0.0461385  
H569     H      0.455380000000     0.280680000000     0.596370000000     0.0465956  
H570     H      0.458500000000     0.350720000000     0.525900000000     0.0461029  
H571     H      0.459140000000     0.390350000000     0.565560000000     0.045919   
H572     H      0.456030000000     0.319880000000     0.635610000000     0.0466861  
H573     H      0.957740000000     0.025750000000     0.565480000000     0.0451646  
H574     H      0.957810000000     0.096250000000     0.635570000000     0.0465588  
H575     H      0.458240000000     0.135470000000     0.596350000000     0.0463246  
H576     H      0.458130000000     0.065410000000     0.525830000000     0.0451652  
H577     H      0.910540000000     0.505090000000     0.252020000000     0.21054    
H578     H      0.505580000000     0.505900000000     0.162290000000     0.204392   
H579     H      0.505240000000     0.911140000000     0.252020000000     0.210681   
H580     H      0.910120000000     0.910250000000     0.162380000000     0.204687   
H581     H      0.513050000000     0.557750000000     0.205130000000     0.126149   
H582     H      0.562370000000     0.514920000000     0.204930000000     0.18666    
H583     H      0.552750000000     0.904410000000     0.190690000000     0.149045   
H584     H      0.508580000000     0.852730000000     0.227910000000     0.200866   
H585     H      0.902710000000     0.858400000000     0.205120000000     0.1261     
H586     H      0.853370000000     0.901260000000     0.205150000000     0.18674    
H587     H      0.862990000000     0.511740000000     0.190600000000     0.148595   
H588     H      0.907230000000     0.563470000000     0.227990000000     0.200396   
H589     H      0.511260000000     0.855750000000     0.189690000000     0.204155   
H590     H      0.829970000000     0.931610000000     0.208580000000     0.20433    
H591     H      0.904450000000     0.560450000000     0.189770000000     0.203921   
H592     H      0.585760000000     0.484570000000     0.208400000000     0.204138   
H593     H      0.505170000000     0.751880000000     0.005230000000     0.206729   
H594     H      0.910220000000     0.662240000000     0.006060000000     0.200854   
H595     H      0.910530000000     0.751880000000     0.411180000000     0.210937   
H596     H      0.505550000000     0.662330000000     0.410260000000     0.205219   
H597     H      0.902690000000     0.704990000000     0.057860000000     0.125294   
H598     H      0.853360000000     0.705440000000     0.015030000000     0.182272   
H599     H      0.862930000000     0.689870000000     0.404750000000     0.148532   
H600     H      0.907280000000     0.727900000000     0.352680000000     0.200653   
H601     H      0.513030000000     0.704980000000     0.358470000000     0.126284   
H602     H      0.562390000000     0.705710000000     0.401320000000     0.186872   
H603     H      0.552810000000     0.689730000000     0.011550000000     0.148256   
H604     H      0.508390000000     0.727960000000     0.063710000000     0.200298   
H605     H      0.904360000000     0.689710000000     0.355950000000     0.203814   
H606     H      0.585780000000     0.708780000000     0.431720000000     0.203108   
H607     H      0.511430000000     0.689790000000     0.060410000000     0.203669   
H608     H      0.829970000000     0.708590000000     0.984640000000     0.20243    
H609     H      0.664040000000     0.505410000000     0.005240000000     0.206424   
H610     H      0.753690000000     0.910520000000     0.006210000000     0.20057    
H611     H      0.664040000000     0.910850000000     0.411140000000     0.210543   
H612     H      0.753790000000     0.505660000000     0.410250000000     0.204648   
H613     H      0.710880000000     0.902940000000     0.057880000000     0.125269   
H614     H      0.710080000000     0.853620000000     0.015100000000     0.182384   
H615     H      0.726360000000     0.863190000000     0.404890000000     0.14886    
H616     H      0.687360000000     0.907980000000     0.352510000000     0.200644   
H617     H      0.710620000000     0.513310000000     0.358580000000     0.126052   
H618     H      0.710490000000     0.562590000000     0.401340000000     0.186272   
H619     H      0.726230000000     0.553040000000     0.011580000000     0.147544   
H620     H      0.687470000000     0.508330000000     0.063880000000     0.199609   
H621     H      0.725460000000     0.904270000000     0.356030000000     0.203675   
H622     H      0.707310000000     0.585980000000     0.431730000000     0.202538   
H623     H      0.725580000000     0.511910000000     0.060360000000     0.202925   
H624     H      0.707250000000     0.830230000000     0.984680000000     0.202749   
H625     H      0.819710000000     0.780750000000     0.461600000000     0.0427489  
H626     H      0.890170000000     0.850720000000     0.456980000000     0.0464231  
H627     H      0.850510000000     0.890350000000     0.456320000000     0.0460396  
H628     H      0.780470000000     0.819960000000     0.460920000000     0.0406914  
H629     H      0.890240000000     0.565410000000     0.957940000000     0.0461946  
H630     H      0.819710000000     0.635470000000     0.457820000000     0.0403614  
H631     H      0.780490000000     0.596240000000     0.458220000000     0.0403558  
H632     H      0.850600000000     0.525760000000     0.958320000000     0.0461194  
H633     H      0.565120000000     0.890480000000     0.958620000000     0.0467897  
H634     H      0.635220000000     0.820000000000     0.458570000000     0.0434225  
H635     H      0.596010000000     0.780780000000     0.457570000000     0.0433569  
H636     H      0.525470000000     0.850830000000     0.957650000000     0.046645   
H637     H      0.596050000000     0.635500000000     0.955780000000     0.0411884  
H638     H      0.525610000000     0.565500000000     0.960210000000     0.0463297  
H639     H      0.565230000000     0.525830000000     0.959550000000     0.046674   
H640     H      0.635260000000     0.596250000000     0.955080000000     0.0431261  
H641     H      0.819780000000     0.953480000000     0.280920000000     0.0440996  
H642     H      0.890220000000     0.458220000000     0.350920000000     0.0460667  
H643     H      0.850560000000     0.458510000000     0.390560000000     0.0457354  
H644     H      0.780540000000     0.953770000000     0.320140000000     0.0457726  
H645     H      0.595920000000     0.964530000000     0.280920000000     0.0440526  
H646     H      0.525620000000     0.956900000000     0.350810000000     0.0465816  
H647     H      0.565280000000     0.956870000000     0.390450000000     0.0466626  
H648     H      0.635160000000     0.964480000000     0.320150000000     0.0468193  
H649     H      0.635190000000     0.454450000000     0.096350000000     0.0455529  
H650     H      0.565160000000     0.957590000000     0.025850000000     0.0455931  
H651     H      0.525500000000     0.957840000000     0.065500000000     0.0456082  
H652     H      0.595950000000     0.454680000000     0.135570000000     0.0415132  
H653     H      0.890160000000     0.459470000000     0.065570000000     0.0453774  
H654     H      0.819660000000     0.459640000000     0.135680000000     0.0413477  
H655     H      0.780420000000     0.459670000000     0.096450000000     0.0452388  
H656     H      0.850500000000     0.459490000000     0.025930000000     0.0449722  
H657     H      0.956470000000     0.565490000000     0.390450000000     0.0464003  
H658     H      0.459390000000     0.635510000000     0.319950000000     0.0466876  
H659     H      0.460050000000     0.596270000000     0.280750000000     0.0466147  
H660     H      0.957110000000     0.525820000000     0.350830000000     0.0465672  
H661     H      0.458370000000     0.850810000000     0.390560000000     0.0461185  
H662     H      0.958460000000     0.780750000000     0.320040000000     0.0466814  
H663     H      0.957580000000     0.819970000000     0.280830000000     0.0468702  
H664     H      0.457490000000     0.890460000000     0.350920000000     0.0462159  
H665     H      0.455380000000     0.780680000000     0.096370000000     0.0464866  
H666     H      0.458500000000     0.850720000000     0.025900000000     0.04518    
H667     H      0.459140000000     0.890350000000     0.065560000000     0.0457114  
H668     H      0.456030000000     0.819880000000     0.135610000000     0.0466525  
H669     H      0.957740000000     0.525750000000     0.065480000000     0.0457543  
H670     H      0.957810000000     0.596250000000     0.135570000000     0.0466369  
H671     H      0.458240000000     0.635470000000     0.096350000000     0.0462568  
H672     H      0.458130000000     0.565410000000     0.025830000000     0.0445758  
H673     H      0.910540000000     0.505090000000     0.752020000000     0.210529   
H674     H      0.505580000000     0.505900000000     0.662290000000     0.204427   
H675     H      0.505240000000     0.911140000000     0.752020000000     0.210664   
H676     H      0.910120000000     0.910250000000     0.662380000000     0.204727   
H677     H      0.513050000000     0.557750000000     0.705130000000     0.126168   
H678     H      0.562370000000     0.514920000000     0.704930000000     0.186687   
H679     H      0.552750000000     0.904410000000     0.690690000000     0.149039   
H680     H      0.508580000000     0.852730000000     0.727910000000     0.200869   
H681     H      0.902710000000     0.858400000000     0.705120000000     0.126124   
H682     H      0.853370000000     0.901260000000     0.705150000000     0.186773   
H683     H      0.862990000000     0.511740000000     0.690600000000     0.148635   
H684     H      0.907230000000     0.563470000000     0.727990000000     0.2004     
H685     H      0.511260000000     0.855750000000     0.689690000000     0.204202   
H686     H      0.829970000000     0.931610000000     0.708580000000     0.204349   
H687     H      0.904450000000     0.560450000000     0.689770000000     0.203968   
H688     H      0.585760000000     0.484570000000     0.708400000000     0.204155   
H689     H      0.505170000000     0.751880000000     0.505230000000     0.210667   
H690     H      0.910220000000     0.662240000000     0.506060000000     0.204914   
H691     H      0.910530000000     0.751880000000     0.911180000000     0.210905   
H692     H      0.505550000000     0.662330000000     0.910260000000     0.205223   
H693     H      0.902700000000     0.704990000000     0.557860000000     0.125877   
H694     H      0.853360000000     0.705440000000     0.515030000000     0.186285   
H695     H      0.862930000000     0.689870000000     0.904750000000     0.148521   
H696     H      0.907280000000     0.727900000000     0.852680000000     0.200631   
H697     H      0.513030000000     0.704980000000     0.858470000000     0.126259   
H698     H      0.562390000000     0.705710000000     0.901320000000     0.186871   
H699     H      0.552810000000     0.689730000000     0.511550000000     0.149043   
H700     H      0.508390000000     0.727960000000     0.563710000000     0.20058    
H701     H      0.904360000000     0.689710000000     0.855950000000     0.203791   
H702     H      0.585780000000     0.708780000000     0.931720000000     0.203518   
H703     H      0.511430000000     0.689790000000     0.560410000000     0.20415    
H704     H      0.829970000000     0.708590000000     0.484640000000     0.202865   
H705     H      0.664040000000     0.505410000000     0.505240000000     0.21036    
H706     H      0.753690000000     0.910520000000     0.506210000000     0.204642   
H707     H      0.664040000000     0.910850000000     0.911140000000     0.210528   
H708     H      0.753790000000     0.505660000000     0.910250000000     0.204652   
H709     H      0.710880000000     0.902940000000     0.557880000000     0.125817   
H710     H      0.710080000000     0.853620000000     0.515100000000     0.186401   
H711     H      0.726360000000     0.863190000000     0.904890000000     0.148846   
H712     H      0.687360000000     0.907980000000     0.852510000000     0.200622   
H713     H      0.710620000000     0.513310000000     0.858580000000     0.126025   
H714     H      0.710490000000     0.562590000000     0.901340000000     0.186271   
H715     H      0.726230000000     0.553040000000     0.511580000000     0.148338   
H716     H      0.687470000000     0.508330000000     0.563880000000     0.199885   
H717     H      0.725460000000     0.904270000000     0.856030000000     0.203656   
H718     H      0.707310000000     0.585980000000     0.931730000000     0.202949   
H719     H      0.725580000000     0.511910000000     0.560360000000     0.203407   
H720     H      0.707250000000     0.830230000000     0.484680000000     0.203185   
H721     H      0.819710000000     0.780750000000     0.961600000000     0.0430795  
H722     H      0.890170000000     0.850720000000     0.956980000000     0.0469258  
H723     H      0.850510000000     0.890350000000     0.956320000000     0.0465363  
H724     H      0.780470000000     0.819960000000     0.960920000000     0.0410324  
H725     H      0.890240000000     0.565410000000     0.457940000000     0.0456697  
H726     H      0.819710000000     0.635470000000     0.957810000000     0.0406834  
H727     H      0.780490000000     0.596240000000     0.958210000000     0.040791   
H728     H      0.850600000000     0.525760000000     0.458320000000     0.0455787  
H729     H      0.565120000000     0.890480000000     0.458620000000     0.0462601  
H730     H      0.635220000000     0.820000000000     0.958570000000     0.0437366  
H731     H      0.596010000000     0.780780000000     0.957570000000     0.043782   
H732     H      0.525470000000     0.850830000000     0.457650000000     0.0461143  
H733     H      0.596050000000     0.635500000000     0.455780000000     0.0407733  
H734     H      0.525610000000     0.565500000000     0.460210000000     0.0457647  
H735     H      0.565230000000     0.525830000000     0.459550000000     0.0461178  
H736     H      0.635260000000     0.596250000000     0.455090000000     0.0427215  
H737     H      0.819780000000     0.953480000000     0.780920000000     0.0440886  
H738     H      0.890220000000     0.458220000000     0.850920000000     0.0461329  
H739     H      0.850560000000     0.458510000000     0.890560000000     0.0459019  
H740     H      0.780540000000     0.953770000000     0.820140000000     0.0457604  
H741     H      0.595920000000     0.964530000000     0.780920000000     0.0440445  
H742     H      0.525620000000     0.956900000000     0.850810000000     0.0466591  
H743     H      0.565280000000     0.956870000000     0.890450000000     0.0468049  
H744     H      0.635160000000     0.964480000000     0.820150000000     0.0468037  
H745     H      0.635190000000     0.454450000000     0.596350000000     0.0456437  
H746     H      0.565160000000     0.957590000000     0.525850000000     0.0465607  
H747     H      0.525500000000     0.957840000000     0.565500000000     0.0459873  
H748     H      0.595950000000     0.454680000000     0.635570000000     0.0415377  
H749     H      0.890160000000     0.459470000000     0.565570000000     0.0457568  
H750     H      0.819660000000     0.459640000000     0.635680000000     0.0413697  
H751     H      0.780420000000     0.459660000000     0.596450000000     0.0453217  
H752     H      0.850500000000     0.459490000000     0.525930000000     0.0459344  
H753     H      0.956470000000     0.565490000000     0.890450000000     0.046561   
H754     H      0.459390000000     0.635510000000     0.819950000000     0.046674   
H755     H      0.460050000000     0.596270000000     0.780750000000     0.0466022  
H756     H      0.957110000000     0.525820000000     0.850830000000     0.0466365  
H757     H      0.458370000000     0.850810000000     0.890560000000     0.046281   
H758     H      0.958460000000     0.780750000000     0.820040000000     0.0466662  
H759     H      0.957590000000     0.819970000000     0.780830000000     0.0468572  
H760     H      0.457490000000     0.890460000000     0.850920000000     0.0462855  
H761     H      0.455380000000     0.780680000000     0.596370000000     0.0465838  
H762     H      0.458500000000     0.850720000000     0.525900000000     0.0461714  
H763     H      0.459140000000     0.890350000000     0.565560000000     0.0460819  
H764     H      0.456030000000     0.819880000000     0.635610000000     0.0466734  
H765     H      0.957740000000     0.525750000000     0.565480000000     0.0461299  
H766     H      0.957810000000     0.596250000000     0.635570000000     0.0466549  
H767     H      0.458240000000     0.635470000000     0.596350000000     0.0463436  
H768     H      0.458130000000     0.565410000000     0.525830000000     0.045553   
O1       O      0.372410000000     0.958200000000     0.156530000000    -0.354212   
O2       O      0.410600000000     0.459120000000     0.120240000000    -0.341109   
O3       O      0.459990000000     0.043550000000     0.259890000000    -0.348748   
O4       O      0.957500000000     0.005380000000     0.296130000000    -0.342142   
O5       O      0.458330000000     0.043550000000     0.156450000000    -0.351338   
O6       O      0.957280000000     0.005320000000     0.120200000000    -0.34254    
O7       O      0.372460000000     0.955270000000     0.259980000000    -0.343452   
O8       O      0.410650000000     0.457780000000     0.296200000000    -0.339915   
O9       O      0.359490000000     0.000560000000     0.210110000000    -0.34273    
O10      O      0.350470000000     0.423180000000     0.207140000000    -0.513349   
O11      O      0.414740000000     0.055290000000     0.208760000000    -0.513362   
O12      O      0.992130000000     0.066350000000     0.207560000000    -0.322077   
O13      O      0.423060000000     0.992630000000     0.177340000000    -0.466014   
O14      O      0.423220000000     0.992520000000     0.238830000000    -0.60525    
O15      O      0.955930000000     0.372670000000     0.259960000000    -0.347631   
O16      O      0.458340000000     0.410880000000     0.296180000000    -0.340136   
O17      O      0.043280000000     0.457820000000     0.156460000000    -0.354768   
O18      O      0.005050000000     0.956960000000     0.120190000000    -0.343093   
O19      O      0.043310000000     0.461090000000     0.259920000000    -0.34409    
O20      O      0.005140000000     0.958510000000     0.296160000000    -0.341863   
O21      O      0.957240000000     0.372570000000     0.156520000000    -0.350405   
O22      O      0.458350000000     0.410790000000     0.120250000000    -0.340374   
O23      O      0.001010000000     0.360900000000     0.208700000000    -0.515894   
O24      O      0.423620000000     0.349820000000     0.207750000000    -0.326159   
O25      O      0.056260000000     0.415640000000     0.210160000000    -0.340003   
O26      O      0.065270000000     0.993000000000     0.206960000000    -0.508604   
O27      O      0.992540000000     0.423690000000     0.238830000000    -0.605301   
O28      O      0.992650000000     0.423520000000     0.177340000000    -0.465922   
O29      O      0.422670000000     0.422640000000     0.241280000000    -0.47385    
O30      O      0.992910000000     0.993310000000     0.175480000000    -0.612806   
O31      O      0.422800000000     0.422850000000     0.175550000000    -0.623127   
O32      O      0.993080000000     0.993560000000     0.241220000000    -0.46911    
O33      O      0.043360000000     0.156430000000     0.957580000000    -0.354633   
O34      O      0.005150000000     0.120160000000     0.458740000000    -0.34357    
O35      O      0.955680000000     0.259790000000     0.043650000000    -0.348302   
O36      O      0.458050000000     0.296030000000     0.005470000000    -0.342682   
O37      O      0.957500000000     0.156370000000     0.043650000000    -0.350627   
O38      O      0.458650000000     0.120130000000     0.005410000000    -0.343211   
O39      O      0.043290000000     0.259890000000     0.956090000000    -0.343784   
O40      O      0.005070000000     0.296100000000     0.458350000000    -0.342502   
O41      O      0.056210000000     0.209430000000     0.000710000000    -0.342979   
O42      O      0.065280000000     0.207450000000     0.423260000000    -0.512819   
O43      O      0.001010000000     0.208740000000     0.055390000000    -0.515358   
O44      O      0.423620000000     0.207420000000     0.066460000000    -0.326178   
O45      O      0.992690000000     0.177240000000     0.992730000000    -0.463713   
O46      O      0.992510000000     0.238700000000     0.992620000000    -0.600115   
O47      O      0.459890000000     0.259870000000     0.372750000000    -0.348551   
O48      O      0.957590000000     0.296080000000     0.410960000000    -0.339632   
O49      O      0.372430000000     0.156360000000     0.458570000000    -0.35515    
O50      O      0.410660000000     0.120110000000     0.957500000000    -0.340632   
O51      O      0.372420000000     0.259820000000     0.460520000000    -0.344215   
O52      O      0.410610000000     0.296060000000     0.958140000000    -0.339277   
O53      O      0.458410000000     0.156440000000     0.372650000000    -0.350861   
O54      O      0.957200000000     0.120180000000     0.410870000000    -0.339796   
O55      O      0.414730000000     0.208690000000     0.360980000000    -0.51339    
O56      O      0.992120000000     0.207610000000     0.349890000000    -0.322205   
O57      O      0.359530000000     0.209540000000     0.415660000000    -0.340553   
O58      O      0.350460000000     0.207240000000     0.993090000000    -0.509062   
O59      O      0.423210000000     0.238710000000     0.423770000000    -0.610227   
O60      O      0.423080000000     0.177240000000     0.423600000000    -0.468445   
O61      O      0.993090000000     0.241190000000     0.422720000000    -0.471539   
O62      O      0.422850000000     0.175410000000     0.993420000000    -0.618317   
O63      O      0.992910000000     0.175480000000     0.422920000000    -0.618046   
O64      O      0.422640000000     0.241130000000     0.993650000000    -0.471634   
O65      O      0.259620000000     0.043530000000     0.957710000000    -0.354882   
O66      O      0.295880000000     0.005320000000     0.458690000000    -0.343736   
O67      O      0.156120000000     0.955430000000     0.043650000000    -0.348451   
O68      O      0.119890000000     0.457930000000     0.005450000000    -0.342688   
O69      O      0.259530000000     0.958230000000     0.043730000000    -0.350642   
O70      O      0.295810000000     0.459240000000     0.005510000000    -0.34295    
O71      O      0.156150000000     0.043540000000     0.955940000000    -0.344058   
O72      O      0.119910000000     0.005370000000     0.458440000000    -0.342697   
O73      O      0.206520000000     0.056420000000     0.000720000000    -0.343093   
O74      O      0.208680000000     0.065490000000     0.423280000000    -0.513009   
O75      O      0.206740000000     0.001230000000     0.055440000000    -0.515469   
O76      O      0.208740000000     0.423890000000     0.066500000000    -0.326963   
O77      O      0.238730000000     0.992890000000     0.992770000000    -0.463857   
O78      O      0.177240000000     0.992770000000     0.992630000000    -0.599892   
O79      O      0.156180000000     0.461010000000     0.372750000000    -0.348702   
O80      O      0.119930000000     0.958390000000     0.410920000000    -0.339454   
O81      O      0.259560000000     0.372630000000     0.458920000000    -0.354888   
O82      O      0.295840000000     0.410830000000     0.957850000000    -0.340186   
O83      O      0.156080000000     0.372710000000     0.460250000000    -0.344125   
O84      O      0.119860000000     0.410910000000     0.957870000000    -0.339636   
O85      O      0.259620000000     0.457760000000     0.372760000000    -0.350427   
O86      O      0.295860000000     0.956860000000     0.411010000000    -0.33987    
O87      O      0.206650000000     0.415010000000     0.360960000000    -0.513528   
O88      O      0.208950000000     0.992330000000     0.349930000000    -0.323187   
O89      O      0.206620000000     0.359800000000     0.415690000000    -0.34031    
O90      O      0.208480000000     0.350730000000     0.993140000000    -0.508721   
O91      O      0.177240000000     0.423470000000     0.423770000000    -0.609923   
O92      O      0.238730000000     0.423300000000     0.423680000000    -0.468396   
O93      O      0.174840000000     0.993320000000     0.422750000000    -0.471519   
O94      O      0.240520000000     0.423100000000     0.993510000000    -0.617965   
O95      O      0.240590000000     0.993100000000     0.422940000000    -0.617851   
O96      O      0.174790000000     0.422910000000     0.993660000000    -0.47163    
O97      O      0.372410000000     0.958200000000     0.656530000000    -0.354192   
O98      O      0.410600000000     0.459120000000     0.620240000000    -0.340989   
O99      O      0.459990000000     0.043550000000     0.759890000000    -0.348765   
O100     O      0.957500000000     0.005380000000     0.796130000000    -0.34214    
O101     O      0.458330000000     0.043550000000     0.656450000000    -0.351328   
O102     O      0.957280000000     0.005320000000     0.620200000000    -0.342443   
O103     O      0.372460000000     0.955270000000     0.759980000000    -0.343469   
O104     O      0.410650000000     0.457780000000     0.796200000000    -0.33991    
O105     O      0.359500000000     0.000560000000     0.710110000000    -0.342823   
O106     O      0.350470000000     0.423180000000     0.707140000000    -0.513364   
O107     O      0.414740000000     0.055290000000     0.708760000000    -0.51337    
O108     O      0.992130000000     0.066350000000     0.707560000000    -0.322066   
O109     O      0.423060000000     0.992630000000     0.677350000000    -0.466061   
O110     O      0.423220000000     0.992520000000     0.738830000000    -0.605233   
O111     O      0.955930000000     0.372670000000     0.759960000000    -0.347646   
O112     O      0.458340000000     0.410880000000     0.796180000000    -0.340129   
O113     O      0.043280000000     0.457820000000     0.656460000000    -0.354757   
O114     O      0.005050000000     0.956960000000     0.620190000000    -0.342994   
O115     O      0.043310000000     0.461090000000     0.759920000000    -0.344119   
O116     O      0.005140000000     0.958510000000     0.796160000000    -0.341875   
O117     O      0.957240000000     0.372570000000     0.656520000000    -0.350392   
O118     O      0.458350000000     0.410790000000     0.620250000000    -0.340268   
O119     O      0.001010000000     0.360900000000     0.708700000000    -0.515911   
O120     O      0.423620000000     0.349820000000     0.707750000000    -0.326153   
O121     O      0.056260000000     0.415640000000     0.710160000000    -0.340006   
O122     O      0.065270000000     0.993000000000     0.706960000000    -0.508608   
O123     O      0.992540000000     0.423690000000     0.738830000000    -0.605286   
O124     O      0.992650000000     0.423520000000     0.677350000000    -0.46597    
O125     O      0.422670000000     0.422640000000     0.741280000000    -0.473867   
O126     O      0.992910000000     0.993310000000     0.675480000000    -0.612802   
O127     O      0.422800000000     0.422850000000     0.675550000000    -0.623147   
O128     O      0.993080000000     0.993560000000     0.741220000000    -0.469121   
O129     O      0.043360000000     0.156430000000     0.457580000000    -0.355156   
O130     O      0.005150000000     0.120160000000     0.958740000000    -0.342957   
O131     O      0.955680000000     0.259790000000     0.543650000000    -0.34801    
O132     O      0.458050000000     0.296030000000     0.505470000000    -0.340105   
O133     O      0.957500000000     0.156370000000     0.543650000000    -0.350393   
O134     O      0.458650000000     0.120130000000     0.505410000000    -0.340646   
O135     O      0.043290000000     0.259890000000     0.456090000000    -0.344373   
O136     O      0.005070000000     0.296100000000     0.958350000000    -0.341768   
O137     O      0.056210000000     0.209430000000     0.500710000000    -0.340371   
O138     O      0.065280000000     0.207450000000     0.923270000000    -0.512749   
O139     O      0.001010000000     0.208740000000     0.555390000000    -0.515732   
O140     O      0.423620000000     0.207420000000     0.566470000000    -0.326394   
O141     O      0.992690000000     0.177240000000     0.492730000000    -0.466075   
O142     O      0.992510000000     0.238700000000     0.492620000000    -0.605123   
O143     O      0.459890000000     0.259870000000     0.872750000000    -0.34865    
O144     O      0.957590000000     0.296080000000     0.910960000000    -0.339666   
O145     O      0.372440000000     0.156360000000     0.958570000000    -0.354842   
O146     O      0.410660000000     0.120110000000     0.457500000000    -0.341273   
O147     O      0.372420000000     0.259820000000     0.960520000000    -0.343987   
O148     O      0.410610000000     0.296060000000     0.458140000000    -0.339819   
O149     O      0.458410000000     0.156440000000     0.872650000000    -0.350938   
O150     O      0.957200000000     0.120180000000     0.910870000000    -0.33983    
O151     O      0.414730000000     0.208690000000     0.860980000000    -0.513831   
O152     O      0.992120000000     0.207610000000     0.849890000000    -0.322244   
O153     O      0.359530000000     0.209540000000     0.915660000000    -0.340559   
O154     O      0.350460000000     0.207240000000     0.493090000000    -0.513522   
O155     O      0.423210000000     0.238710000000     0.923770000000    -0.610399   
O156     O      0.423080000000     0.177240000000     0.923600000000    -0.46864    
O157     O      0.993090000000     0.241190000000     0.922720000000    -0.471944   
O158     O      0.422850000000     0.175410000000     0.493420000000    -0.623428   
O159     O      0.992910000000     0.175480000000     0.922920000000    -0.618445   
O160     O      0.422640000000     0.241130000000     0.493650000000    -0.473939   
O161     O      0.259620000000     0.043530000000     0.457710000000    -0.355398   
O162     O      0.295880000000     0.005320000000     0.958690000000    -0.343117   
O163     O      0.156120000000     0.955430000000     0.543650000000    -0.348162   
O164     O      0.119890000000     0.457930000000     0.505450000000    -0.340121   
O165     O      0.259530000000     0.958230000000     0.543730000000    -0.350401   
O166     O      0.295810000000     0.459240000000     0.505510000000    -0.340381   
O167     O      0.156150000000     0.043540000000     0.455940000000    -0.344646   
O168     O      0.119910000000     0.005370000000     0.958440000000    -0.341967   
O169     O      0.206520000000     0.056420000000     0.500720000000    -0.340491   
O170     O      0.208680000000     0.065490000000     0.923280000000    -0.513071   
O171     O      0.206740000000     0.001230000000     0.555440000000    -0.51585    
O172     O      0.208740000000     0.423890000000     0.566500000000    -0.327333   
O173     O      0.238730000000     0.992890000000     0.492770000000    -0.466228   
O174     O      0.177240000000     0.992770000000     0.492630000000    -0.604903   
O175     O      0.156180000000     0.461010000000     0.872750000000    -0.348737   
O176     O      0.119930000000     0.958390000000     0.910920000000    -0.339489   
O177     O      0.259560000000     0.372630000000     0.958920000000    -0.354503   
O178     O      0.295840000000     0.410830000000     0.457850000000    -0.340853   
O179     O      0.156080000000     0.372710000000     0.960250000000    -0.343885   
O180     O      0.119860000000     0.410910000000     0.457870000000    -0.34018    
O181     O      0.259620000000     0.457760000000     0.872760000000    -0.350461   
O182     O      0.295860000000     0.956860000000     0.911010000000    -0.339904   
O183     O      0.206650000000     0.415010000000     0.860960000000    -0.513787   
O184     O      0.208950000000     0.992330000000     0.849930000000    -0.323205   
O185     O      0.206620000000     0.359800000000     0.915690000000    -0.340311   
O186     O      0.208480000000     0.350720000000     0.493140000000    -0.51335    
O187     O      0.177240000000     0.423470000000     0.923770000000    -0.610136   
O188     O      0.238730000000     0.423300000000     0.923680000000    -0.468634   
O189     O      0.174840000000     0.993320000000     0.922750000000    -0.471875   
O190     O      0.240520000000     0.423100000000     0.493510000000    -0.623069   
O191     O      0.240590000000     0.993100000000     0.922940000000    -0.618199   
O192     O      0.174790000000     0.422910000000     0.493660000000    -0.473948   
O193     O      0.372410000000     0.458200000000     0.156530000000    -0.354734   
O194     O      0.410600000000     0.959120000000     0.120240000000    -0.340495   
O195     O      0.459990000000     0.543550000000     0.259890000000    -0.348457   
O196     O      0.957500000000     0.505380000000     0.296130000000    -0.339569   
O197     O      0.458330000000     0.543550000000     0.156450000000    -0.3511     
O198     O      0.957280000000     0.505320000000     0.120200000000    -0.339966   
O199     O      0.372460000000     0.455270000000     0.259980000000    -0.34404    
O200     O      0.410650000000     0.957780000000     0.296200000000    -0.339189   
O201     O      0.359500000000     0.500560000000     0.210110000000    -0.340184   
O202     O      0.350470000000     0.923180000000     0.207140000000    -0.513511   
O203     O      0.414740000000     0.555290000000     0.208760000000    -0.513727   
O204     O      0.992130000000     0.566350000000     0.207560000000    -0.322436   
O205     O      0.423060000000     0.492630000000     0.177340000000    -0.468375   
O206     O      0.423220000000     0.492520000000     0.238830000000    -0.610305   
O207     O      0.955930000000     0.872670000000     0.259960000000    -0.347719   
O208     O      0.458340000000     0.910870000000     0.296180000000    -0.34014    
O209     O      0.043280000000     0.957820000000     0.156460000000    -0.354375   
O210     O      0.005050000000     0.456960000000     0.120190000000    -0.343755   
O211     O      0.043310000000     0.961090000000     0.259920000000    -0.343866   
O212     O      0.005140000000     0.458510000000     0.296160000000    -0.342408   
O213     O      0.957240000000     0.872570000000     0.156520000000    -0.350447   
O214     O      0.458350000000     0.910790000000     0.120250000000    -0.340412   
O215     O      0.001010000000     0.860900000000     0.208700000000    -0.515896   
O216     O      0.423620000000     0.849820000000     0.207750000000    -0.326177   
O217     O      0.056260000000     0.915640000000     0.210160000000    -0.340008   
O218     O      0.065270000000     0.493000000000     0.206960000000    -0.513098   
O219     O      0.992540000000     0.923690000000     0.238830000000    -0.605516   
O220     O      0.992650000000     0.923530000000     0.177340000000    -0.46622    
O221     O      0.422670000000     0.922640000000     0.241280000000    -0.474201   
O222     O      0.992910000000     0.493310000000     0.175480000000    -0.6179     
O223     O      0.422800000000     0.922850000000     0.175550000000    -0.623474   
O224     O      0.993080000000     0.493560000000     0.241220000000    -0.471406   
O225     O      0.043360000000     0.656430000000     0.957580000000    -0.354655   
O226     O      0.005150000000     0.620160000000     0.458740000000    -0.343457   
O227     O      0.955680000000     0.759790000000     0.043650000000    -0.348316   
O228     O      0.458050000000     0.796030000000     0.005470000000    -0.342683   
O229     O      0.957500000000     0.656370000000     0.043650000000    -0.350614   
O230     O      0.458650000000     0.620130000000     0.005410000000    -0.343117   
O231     O      0.043290000000     0.759890000000     0.956090000000    -0.34384    
O232     O      0.005070000000     0.796100000000     0.458350000000    -0.342504   
O233     O      0.056210000000     0.709430000000     0.000710000000    -0.343045   
O234     O      0.065280000000     0.707450000000     0.423260000000    -0.512808   
O235     O      0.001010000000     0.708740000000     0.055390000000    -0.515373   
O236     O      0.423620000000     0.707420000000     0.066460000000    -0.326168   
O237     O      0.992690000000     0.677240000000     0.992730000000    -0.463676   
O238     O      0.992510000000     0.738700000000     0.992620000000    -0.60007    
O239     O      0.459890000000     0.759870000000     0.372750000000    -0.348612   
O240     O      0.957590000000     0.796080000000     0.410960000000    -0.339623   
O241     O      0.372440000000     0.656360000000     0.458570000000    -0.355215   
O242     O      0.410660000000     0.620110000000     0.957500000000    -0.340525   
O243     O      0.372420000000     0.759820000000     0.460520000000    -0.344248   
O244     O      0.410610000000     0.796050000000     0.958140000000    -0.339354   
O245     O      0.458410000000     0.656440000000     0.372650000000    -0.350877   
O246     O      0.957200000000     0.620180000000     0.410870000000    -0.339674   
O247     O      0.414730000000     0.708690000000     0.360980000000    -0.513469   
O248     O      0.992120000000     0.707610000000     0.349890000000    -0.322188   
O249     O      0.359530000000     0.709540000000     0.415660000000    -0.340562   
O250     O      0.350460000000     0.707240000000     0.993090000000    -0.509061   
O251     O      0.423210000000     0.738710000000     0.423770000000    -0.610187   
O252     O      0.423080000000     0.677240000000     0.423600000000    -0.468403   
O253     O      0.993090000000     0.741190000000     0.422720000000    -0.471557   
O254     O      0.422850000000     0.675410000000     0.993420000000    -0.61833    
O255     O      0.992910000000     0.675470000000     0.422920000000    -0.61813    
O256     O      0.422640000000     0.741130000000     0.993650000000    -0.471635   
O257     O      0.259620000000     0.543530000000     0.957710000000    -0.354643   
O258     O      0.295880000000     0.505320000000     0.458690000000    -0.341157   
O259     O      0.156120000000     0.455430000000     0.043650000000    -0.349073   
O260     O      0.119890000000     0.957930000000     0.005450000000    -0.341952   
O261     O      0.259530000000     0.458230000000     0.043730000000    -0.351158   
O262     O      0.295810000000     0.959240000000     0.005510000000    -0.34233    
O263     O      0.156150000000     0.543540000000     0.955940000000    -0.343755   
O264     O      0.119910000000     0.505370000000     0.458440000000    -0.340115   
O265     O      0.206520000000     0.556420000000     0.000720000000    -0.343318   
O266     O      0.208680000000     0.565480000000     0.423280000000    -0.513056   
O267     O      0.206740000000     0.501230000000     0.055440000000    -0.513517   
O268     O      0.208740000000     0.923890000000     0.066500000000    -0.326652   
O269     O      0.238730000000     0.492890000000     0.992770000000    -0.466233   
O270     O      0.177240000000     0.492770000000     0.992630000000    -0.604926   
O271     O      0.156180000000     0.961010000000     0.372750000000    -0.348477   
O272     O      0.119930000000     0.458400000000     0.410920000000    -0.339998   
O273     O      0.259560000000     0.872630000000     0.458920000000    -0.354922   
O274     O      0.295840000000     0.910830000000     0.957850000000    -0.340222   
O275     O      0.156080000000     0.872710000000     0.460250000000    -0.344159   
O276     O      0.119860000000     0.910910000000     0.957870000000    -0.339669   
O277     O      0.259620000000     0.957760000000     0.372760000000    -0.350036   
O278     O      0.295860000000     0.456860000000     0.411010000000    -0.340526   
O279     O      0.206650000000     0.915010000000     0.360960000000    -0.513847   
O280     O      0.208950000000     0.492330000000     0.349930000000    -0.327091   
O281     O      0.206620000000     0.859800000000     0.415690000000    -0.34033    
O282     O      0.208480000000     0.850720000000     0.993140000000    -0.508893   
O283     O      0.177240000000     0.923470000000     0.423770000000    -0.610147   
O284     O      0.238730000000     0.923300000000     0.423680000000    -0.468644   
O285     O      0.174840000000     0.493320000000     0.422750000000    -0.473831   
O286     O      0.240520000000     0.923100000000     0.993510000000    -0.618314   
O287     O      0.240590000000     0.493100000000     0.422940000000    -0.622981   
O288     O      0.174790000000     0.922910000000     0.993660000000    -0.471991   
O289     O      0.372410000000     0.458200000000     0.656530000000    -0.35471    
O290     O      0.410600000000     0.959120000000     0.620240000000    -0.340375   
O291     O      0.459990000000     0.543550000000     0.759890000000    -0.348475   
O292     O      0.957500000000     0.505380000000     0.796130000000    -0.339564   
O293     O      0.458330000000     0.543550000000     0.656450000000    -0.351089   
O294     O      0.957280000000     0.505320000000     0.620200000000    -0.33986    
O295     O      0.372460000000     0.455270000000     0.759980000000    -0.344057   
O296     O      0.410650000000     0.957780000000     0.796200000000    -0.339183   
O297     O      0.359500000000     0.500560000000     0.710110000000    -0.34019    
O298     O      0.350470000000     0.923180000000     0.707140000000    -0.513529   
O299     O      0.414740000000     0.555290000000     0.708760000000    -0.513739   
O300     O      0.992130000000     0.566350000000     0.707560000000    -0.322426   
O301     O      0.423060000000     0.492630000000     0.677350000000    -0.468429   
O302     O      0.423220000000     0.492520000000     0.738830000000    -0.610298   
O303     O      0.955930000000     0.872670000000     0.759960000000    -0.347735   
O304     O      0.458340000000     0.910870000000     0.796180000000    -0.340135   
O305     O      0.043280000000     0.957820000000     0.656460000000    -0.354363   
O306     O      0.005050000000     0.456960000000     0.620190000000    -0.343659   
O307     O      0.043310000000     0.961090000000     0.759920000000    -0.343895   
O308     O      0.005140000000     0.458510000000     0.796160000000    -0.34242    
O309     O      0.957240000000     0.872570000000     0.656520000000    -0.350434   
O310     O      0.458350000000     0.910790000000     0.620250000000    -0.340307   
O311     O      0.001010000000     0.860900000000     0.708700000000    -0.515913   
O312     O      0.423620000000     0.849820000000     0.707750000000    -0.32617    
O313     O      0.056260000000     0.915640000000     0.710160000000    -0.340012   
O314     O      0.065270000000     0.493000000000     0.706960000000    -0.513075   
O315     O      0.992540000000     0.923690000000     0.738830000000    -0.605501   
O316     O      0.992650000000     0.923530000000     0.677350000000    -0.466269   
O317     O      0.422670000000     0.922640000000     0.741280000000    -0.474223   
O318     O      0.992910000000     0.493310000000     0.675480000000    -0.617909   
O319     O      0.422800000000     0.922850000000     0.675550000000    -0.623498   
O320     O      0.993080000000     0.493560000000     0.741220000000    -0.471422   
O321     O      0.043360000000     0.656430000000     0.457580000000    -0.355129   
O322     O      0.005150000000     0.620160000000     0.958740000000    -0.342853   
O323     O      0.955680000000     0.759790000000     0.543650000000    -0.348023   
O324     O      0.458050000000     0.796030000000     0.505470000000    -0.340101   
O325     O      0.957500000000     0.656370000000     0.543650000000    -0.350362   
O326     O      0.458650000000     0.620120000000     0.505410000000    -0.34046    
O327     O      0.043290000000     0.759890000000     0.456090000000    -0.344388   
O328     O      0.005070000000     0.796100000000     0.958350000000    -0.34178    
O329     O      0.056210000000     0.709430000000     0.500710000000    -0.340371   
O330     O      0.065280000000     0.707450000000     0.923270000000    -0.512848   
O331     O      0.001010000000     0.708740000000     0.555390000000    -0.515747   
O332     O      0.423620000000     0.707420000000     0.566470000000    -0.326385   
O333     O      0.992690000000     0.677240000000     0.492730000000    -0.466077   
O334     O      0.992510000000     0.738700000000     0.492620000000    -0.605127   
O335     O      0.459890000000     0.759870000000     0.872750000000    -0.348658   
O336     O      0.957590000000     0.796080000000     0.910960000000    -0.339667   
O337     O      0.372440000000     0.656360000000     0.958570000000    -0.354826   
O338     O      0.410660000000     0.620110000000     0.457500000000    -0.341186   
O339     O      0.372420000000     0.759820000000     0.960520000000    -0.344017   
O340     O      0.410610000000     0.796050000000     0.458140000000    -0.339899   
O341     O      0.458410000000     0.656440000000     0.872650000000    -0.350914   
O342     O      0.957200000000     0.620180000000     0.910870000000    -0.339721   
O343     O      0.414730000000     0.708690000000     0.860980000000    -0.513586   
O344     O      0.992120000000     0.707610000000     0.849890000000    -0.322322   
O345     O      0.359530000000     0.709540000000     0.915660000000    -0.340571   
O346     O      0.350460000000     0.707240000000     0.493090000000    -0.513533   
O347     O      0.423210000000     0.738710000000     0.923770000000    -0.610553   
O348     O      0.423080000000     0.677240000000     0.923600000000    -0.468641   
O349     O      0.993090000000     0.741190000000     0.922720000000    -0.471907   
O350     O      0.422850000000     0.675410000000     0.493420000000    -0.62345    
O351     O      0.992910000000     0.675470000000     0.922920000000    -0.618455   
O352     O      0.422640000000     0.741130000000     0.493650000000    -0.473946   
O353     O      0.259620000000     0.543530000000     0.457710000000    -0.35516    
O354     O      0.295880000000     0.505320000000     0.958690000000    -0.340538   
O355     O      0.156120000000     0.455430000000     0.543650000000    -0.348788   
O356     O      0.119890000000     0.957930000000     0.505450000000    -0.339384   
O357     O      0.259530000000     0.458230000000     0.543730000000    -0.350921   
O358     O      0.295810000000     0.959240000000     0.505510000000    -0.339758   
O359     O      0.156150000000     0.543540000000     0.455940000000    -0.344342   
O360     O      0.119910000000     0.505370000000     0.958440000000    -0.339393   
O361     O      0.206520000000     0.556420000000     0.500720000000    -0.340704   
O362     O      0.208680000000     0.565480000000     0.923280000000    -0.513117   
O363     O      0.206740000000     0.501230000000     0.555440000000    -0.513889   
O364     O      0.208740000000     0.923890000000     0.566500000000    -0.327021   
O365     O      0.238730000000     0.492890000000     0.492770000000    -0.468608   
O366     O      0.177240000000     0.492770000000     0.492630000000    -0.609959   
O367     O      0.156180000000     0.961010000000     0.872750000000    -0.348504   
O368     O      0.119930000000     0.458390000000     0.910920000000    -0.340032   
O369     O      0.259560000000     0.872630000000     0.958920000000    -0.35454    
O370     O      0.295840000000     0.910830000000     0.457850000000    -0.340886   
O371     O      0.156080000000     0.872710000000     0.960250000000    -0.34392    
O372     O      0.119860000000     0.910910000000     0.457870000000    -0.340205   
O373     O      0.259620000000     0.957760000000     0.872760000000    -0.350071   
O374     O      0.295860000000     0.456860000000     0.911010000000    -0.340559   
O375     O      0.206650000000     0.915010000000     0.860960000000    -0.513848   
O376     O      0.208950000000     0.492330000000     0.849930000000    -0.327113   
O377     O      0.206620000000     0.859800000000     0.915690000000    -0.34033    
O378     O      0.208480000000     0.850720000000     0.493140000000    -0.513356   
O379     O      0.177240000000     0.923470000000     0.923770000000    -0.610357   
O380     O      0.238730000000     0.923300000000     0.923680000000    -0.468878   
O381     O      0.174840000000     0.493320000000     0.922750000000    -0.474201   
O382     O      0.240520000000     0.923100000000     0.493510000000    -0.62342    
O383     O      0.240590000000     0.493100000000     0.922940000000    -0.623331   
O384     O      0.174790000000     0.922910000000     0.493660000000    -0.474308   
O385     O      0.872410000000     0.958200000000     0.156530000000    -0.354243   
O386     O      0.910600000000     0.459120000000     0.120240000000    -0.341129   
O387     O      0.959990000000     0.043550000000     0.259890000000    -0.348509   
O388     O      0.457500000000     0.005380000000     0.296130000000    -0.342684   
O389     O      0.958330000000     0.043550000000     0.156450000000    -0.350944   
O390     O      0.457280000000     0.005320000000     0.120200000000    -0.343208   
O391     O      0.872460000000     0.955270000000     0.259980000000    -0.343506   
O392     O      0.910650000000     0.457780000000     0.296200000000    -0.339962   
O393     O      0.859490000000     0.000560000000     0.210110000000    -0.342747   
O394     O      0.850470000000     0.423180000000     0.207140000000    -0.513459   
O395     O      0.914740000000     0.055290000000     0.208760000000    -0.513313   
O396     O      0.492120000000     0.066350000000     0.207560000000    -0.325901   
O397     O      0.923060000000     0.992630000000     0.177340000000    -0.466266   
O398     O      0.923220000000     0.992520000000     0.238830000000    -0.605483   
O399     O      0.455930000000     0.372670000000     0.259960000000    -0.348261   
O400     O      0.958340000000     0.410880000000     0.296180000000    -0.339386   
O401     O      0.543280000000     0.457820000000     0.156460000000    -0.354533   
O402     O      0.505050000000     0.956960000000     0.120190000000    -0.340506   
O403     O      0.543310000000     0.461090000000     0.259920000000    -0.343798   
O404     O      0.505140000000     0.958510000000     0.296160000000    -0.33928    
O405     O      0.457240000000     0.372570000000     0.156520000000    -0.350924   
O406     O      0.958350000000     0.410790000000     0.120250000000    -0.339754   
O407     O      0.501010000000     0.360900000000     0.208700000000    -0.51391    
O408     O      0.923620000000     0.349820000000     0.207750000000    -0.325851   
O409     O      0.556250000000     0.415640000000     0.210160000000    -0.340303   
O410     O      0.565270000000     0.993000000000     0.206960000000    -0.509137   
O411     O      0.492540000000     0.423690000000     0.238830000000    -0.610385   
O412     O      0.492650000000     0.423520000000     0.177340000000    -0.468319   
O413     O      0.922680000000     0.422640000000     0.241280000000    -0.474268   
O414     O      0.492910000000     0.993310000000     0.175480000000    -0.617933   
O415     O      0.922800000000     0.422850000000     0.175550000000    -0.623473   
O416     O      0.493080000000     0.993560000000     0.241220000000    -0.471446   
O417     O      0.543360000000     0.156430000000     0.957580000000    -0.354446   
O418     O      0.505150000000     0.120160000000     0.458740000000    -0.340986   
O419     O      0.455680000000     0.259790000000     0.043650000000    -0.348928   
O420     O      0.958050000000     0.296030000000     0.005470000000    -0.341939   
O421     O      0.457500000000     0.156370000000     0.043650000000    -0.351151   
O422     O      0.958650000000     0.120130000000     0.005410000000    -0.342576   
O423     O      0.543290000000     0.259890000000     0.956090000000    -0.343534   
O424     O      0.505070000000     0.296100000000     0.458350000000    -0.339914   
O425     O      0.556210000000     0.209430000000     0.000710000000    -0.343275   
O426     O      0.565280000000     0.207450000000     0.423260000000    -0.513418   
O427     O      0.501010000000     0.208740000000     0.055390000000    -0.513392   
O428     O      0.923620000000     0.207420000000     0.066460000000    -0.325716   
O429     O      0.492690000000     0.177240000000     0.992730000000    -0.466076   
O430     O      0.492510000000     0.238700000000     0.992620000000    -0.605133   
O431     O      0.959890000000     0.259870000000     0.372750000000    -0.348339   
O432     O      0.457590000000     0.296080000000     0.410960000000    -0.34016    
O433     O      0.872430000000     0.156360000000     0.458570000000    -0.355184   
O434     O      0.910660000000     0.120110000000     0.957500000000    -0.34064    
O435     O      0.872420000000     0.259820000000     0.460520000000    -0.344251   
O436     O      0.910610000000     0.296060000000     0.958140000000    -0.339313   
O437     O      0.958410000000     0.156440000000     0.372650000000    -0.350465   
O438     O      0.457200000000     0.120180000000     0.410870000000    -0.340465   
O439     O      0.914730000000     0.208690000000     0.360980000000    -0.513794   
O440     O      0.492120000000     0.207610000000     0.349890000000    -0.326153   
O441     O      0.859530000000     0.209540000000     0.415660000000    -0.340575   
O442     O      0.850460000000     0.207240000000     0.993090000000    -0.509061   
O443     O      0.923210000000     0.238710000000     0.423770000000    -0.610512   
O444     O      0.923080000000     0.177240000000     0.423600000000    -0.468748   
O445     O      0.493090000000     0.241190000000     0.422720000000    -0.473892   
O446     O      0.922850000000     0.175410000000     0.993420000000    -0.618522   
O447     O      0.492910000000     0.175480000000     0.422920000000    -0.62321    
O448     O      0.922640000000     0.241130000000     0.993650000000    -0.471996   
O449     O      0.759620000000     0.043530000000     0.957710000000    -0.3549     
O450     O      0.795880000000     0.005320000000     0.458690000000    -0.343733   
O451     O      0.656120000000     0.955430000000     0.043650000000    -0.348435   
O452     O      0.619890000000     0.457930000000     0.005450000000    -0.342586   
O453     O      0.759530000000     0.958230000000     0.043730000000    -0.350672   
O454     O      0.795800000000     0.459240000000     0.005510000000    -0.343035   
O455     O      0.656150000000     0.043540000000     0.955940000000    -0.344042   
O456     O      0.619910000000     0.005370000000     0.458440000000    -0.342596   
O457     O      0.706520000000     0.056420000000     0.000720000000    -0.343079   
O458     O      0.708680000000     0.065490000000     0.423280000000    -0.513016   
O459     O      0.706740000000     0.001230000000     0.055440000000    -0.515484   
O460     O      0.708740000000     0.423890000000     0.066500000000    -0.326953   
O461     O      0.738730000000     0.992890000000     0.992770000000    -0.463861   
O462     O      0.677240000000     0.992770000000     0.992630000000    -0.599895   
O463     O      0.656180000000     0.461010000000     0.372750000000    -0.348691   
O464     O      0.619930000000     0.958390000000     0.410920000000    -0.339345   
O465     O      0.759560000000     0.372630000000     0.458920000000    -0.354891   
O466     O      0.795840000000     0.410830000000     0.957850000000    -0.340168   
O467     O      0.656080000000     0.372710000000     0.460250000000    -0.344106   
O468     O      0.619860000000     0.410910000000     0.957870000000    -0.33952    
O469     O      0.759620000000     0.457760000000     0.372760000000    -0.35046    
O470     O      0.795860000000     0.956860000000     0.411010000000    -0.339873   
O471     O      0.706650000000     0.415010000000     0.360960000000    -0.513807   
O472     O      0.708950000000     0.992330000000     0.349930000000    -0.323176   
O473     O      0.706620000000     0.359800000000     0.415690000000    -0.340283   
O474     O      0.708480000000     0.350730000000     0.993140000000    -0.508718   
O475     O      0.677240000000     0.423470000000     0.423770000000    -0.609943   
O476     O      0.738730000000     0.423300000000     0.423680000000    -0.468413   
O477     O      0.674850000000     0.993320000000     0.422750000000    -0.47158    
O478     O      0.740520000000     0.423100000000     0.993510000000    -0.617958   
O479     O      0.740590000000     0.993100000000     0.422940000000    -0.617851   
O480     O      0.674790000000     0.422910000000     0.993660000000    -0.471619   
O481     O      0.872410000000     0.958200000000     0.656530000000    -0.354224   
O482     O      0.910600000000     0.459120000000     0.620240000000    -0.341023   
O483     O      0.959990000000     0.043550000000     0.759890000000    -0.348526   
O484     O      0.457500000000     0.005380000000     0.796130000000    -0.342683   
O485     O      0.958330000000     0.043550000000     0.656450000000    -0.350933   
O486     O      0.457280000000     0.005320000000     0.620200000000    -0.343112   
O487     O      0.872460000000     0.955270000000     0.759980000000    -0.34352    
O488     O      0.910650000000     0.457780000000     0.796200000000    -0.339958   
O489     O      0.859490000000     0.000560000000     0.710110000000    -0.34283    
O490     O      0.850470000000     0.423180000000     0.707140000000    -0.513473   
O491     O      0.914740000000     0.055290000000     0.708760000000    -0.513324   
O492     O      0.492120000000     0.066350000000     0.707560000000    -0.325899   
O493     O      0.923060000000     0.992630000000     0.677350000000    -0.466319   
O494     O      0.923220000000     0.992520000000     0.738830000000    -0.605468   
O495     O      0.455930000000     0.372670000000     0.759960000000    -0.348277   
O496     O      0.958340000000     0.410880000000     0.796180000000    -0.33938    
O497     O      0.543280000000     0.457820000000     0.656460000000    -0.354518   
O498     O      0.505050000000     0.956960000000     0.620190000000    -0.340398   
O499     O      0.543310000000     0.461090000000     0.759920000000    -0.343814   
O500     O      0.505140000000     0.958510000000     0.796160000000    -0.339273   
O501     O      0.457240000000     0.372570000000     0.656520000000    -0.350912   
O502     O      0.958350000000     0.410790000000     0.620250000000    -0.339647   
O503     O      0.501010000000     0.360900000000     0.708700000000    -0.513925   
O504     O      0.923620000000     0.349820000000     0.707750000000    -0.325843   
O505     O      0.556260000000     0.415640000000     0.710160000000    -0.340227   
O506     O      0.565270000000     0.993000000000     0.706960000000    -0.509138   
O507     O      0.492540000000     0.423690000000     0.738830000000    -0.61038    
O508     O      0.492650000000     0.423520000000     0.677350000000    -0.468375   
O509     O      0.922680000000     0.422640000000     0.741280000000    -0.474286   
O510     O      0.492910000000     0.993310000000     0.675480000000    -0.617937   
O511     O      0.922800000000     0.422850000000     0.675550000000    -0.623494   
O512     O      0.493080000000     0.993560000000     0.741220000000    -0.471457   
O513     O      0.543360000000     0.156430000000     0.457580000000    -0.354965   
O514     O      0.505150000000     0.120160000000     0.958740000000    -0.340376   
O515     O      0.455680000000     0.259790000000     0.543650000000    -0.348639   
O516     O      0.958050000000     0.296030000000     0.505470000000    -0.339361   
O517     O      0.457500000000     0.156370000000     0.543650000000    -0.350922   
O518     O      0.958650000000     0.120130000000     0.505410000000    -0.34001    
O519     O      0.543290000000     0.259890000000     0.456090000000    -0.344118   
O520     O      0.505070000000     0.296100000000     0.958350000000    -0.339182   
O521     O      0.556210000000     0.209430000000     0.500710000000    -0.340651   
O522     O      0.565280000000     0.207450000000     0.923260000000    -0.51348    
O523     O      0.501010000000     0.208740000000     0.555390000000    -0.513759   
O524     O      0.923620000000     0.207420000000     0.566470000000    -0.326078   
O525     O      0.492690000000     0.177240000000     0.492730000000    -0.468444   
O526     O      0.492510000000     0.238700000000     0.492620000000    -0.610166   
O527     O      0.959890000000     0.259870000000     0.872750000000    -0.348369   
O528     O      0.457590000000     0.296080000000     0.910960000000    -0.340216   
O529     O      0.872430000000     0.156360000000     0.958570000000    -0.354794   
O530     O      0.910660000000     0.120110000000     0.457500000000    -0.3413     
O531     O      0.872420000000     0.259820000000     0.960520000000    -0.344018   
O532     O      0.910610000000     0.296060000000     0.458140000000    -0.339856   
O533     O      0.958410000000     0.156440000000     0.872650000000    -0.350497   
O534     O      0.457200000000     0.120180000000     0.910870000000    -0.340506   
O535     O      0.914730000000     0.208690000000     0.860980000000    -0.513707   
O536     O      0.492120000000     0.207610000000     0.849890000000    -0.326251   
O537     O      0.859530000000     0.209540000000     0.915660000000    -0.340573   
O538     O      0.850460000000     0.207240000000     0.493090000000    -0.513528   
O539     O      0.923210000000     0.238710000000     0.923770000000    -0.610665   
O540     O      0.923080000000     0.177240000000     0.923600000000    -0.468931   
O541     O      0.493090000000     0.241190000000     0.922720000000    -0.474227   
O542     O      0.922850000000     0.175410000000     0.493420000000    -0.623628   
O543     O      0.492910000000     0.175480000000     0.922920000000    -0.623522   
O544     O      0.922640000000     0.241130000000     0.493650000000    -0.474309   
O545     O      0.759620000000     0.043530000000     0.457710000000    -0.355416   
O546     O      0.795880000000     0.005320000000     0.958690000000    -0.343114   
O547     O      0.656120000000     0.955430000000     0.543650000000    -0.348145   
O548     O      0.619890000000     0.457930000000     0.505450000000    -0.34001    
O549     O      0.759530000000     0.958230000000     0.543730000000    -0.350433   
O550     O      0.795800000000     0.459240000000     0.505510000000    -0.340461   
O551     O      0.656150000000     0.043540000000     0.455940000000    -0.34463    
O552     O      0.619910000000     0.005370000000     0.958440000000    -0.341864   
O553     O      0.706520000000     0.056420000000     0.500720000000    -0.34047    
O554     O      0.708680000000     0.065490000000     0.923280000000    -0.513078   
O555     O      0.706740000000     0.001230000000     0.555440000000    -0.515866   
O556     O      0.708740000000     0.423890000000     0.566500000000    -0.327323   
O557     O      0.738730000000     0.992890000000     0.492770000000    -0.466236   
O558     O      0.677240000000     0.992770000000     0.492630000000    -0.604918   
O559     O      0.656180000000     0.461010000000     0.872750000000    -0.348726   
O560     O      0.619930000000     0.958390000000     0.910920000000    -0.339386   
O561     O      0.759560000000     0.372630000000     0.958920000000    -0.354505   
O562     O      0.795840000000     0.410830000000     0.457850000000    -0.340835   
O563     O      0.656080000000     0.372710000000     0.960250000000    -0.343863   
O564     O      0.619860000000     0.410910000000     0.457870000000    -0.340068   
O565     O      0.759620000000     0.457760000000     0.872760000000    -0.350483   
O566     O      0.795860000000     0.956860000000     0.911010000000    -0.339906   
O567     O      0.706650000000     0.415010000000     0.860960000000    -0.513808   
O568     O      0.708950000000     0.992330000000     0.849930000000    -0.323193   
O569     O      0.706620000000     0.359800000000     0.915690000000    -0.340282   
O570     O      0.708480000000     0.350720000000     0.493140000000    -0.513355   
O571     O      0.677240000000     0.423470000000     0.923770000000    -0.610156   
O572     O      0.738730000000     0.423300000000     0.923680000000    -0.468651   
O573     O      0.674850000000     0.993320000000     0.922750000000    -0.471937   
O574     O      0.740520000000     0.423100000000     0.493510000000    -0.623071   
O575     O      0.740590000000     0.993100000000     0.922940000000    -0.618199   
O576     O      0.674790000000     0.422910000000     0.493660000000    -0.473941   
O577     O      0.872410000000     0.458200000000     0.156530000000    -0.354748   
O578     O      0.910600000000     0.959120000000     0.120240000000    -0.340531   
O579     O      0.959990000000     0.543550000000     0.259890000000    -0.348227   
O580     O      0.457500000000     0.505380000000     0.296130000000    -0.340107   
O581     O      0.958330000000     0.543550000000     0.156450000000    -0.350705   
O582     O      0.457280000000     0.505320000000     0.120200000000    -0.340631   
O583     O      0.872460000000     0.455270000000     0.259980000000    -0.344091   
O584     O      0.910650000000     0.957780000000     0.296200000000    -0.339239   
O585     O      0.859490000000     0.500560000000     0.210110000000    -0.340119   
O586     O      0.850470000000     0.923180000000     0.207140000000    -0.513519   
O587     O      0.914740000000     0.555290000000     0.208760000000    -0.513793   
O588     O      0.492120000000     0.566350000000     0.207560000000    -0.326267   
O589     O      0.923060000000     0.492630000000     0.177340000000    -0.468625   
O590     O      0.923220000000     0.492520000000     0.238830000000    -0.610533   
O591     O      0.455930000000     0.872670000000     0.259960000000    -0.348348   
O592     O      0.958340000000     0.910870000000     0.296180000000    -0.339393   
O593     O      0.543280000000     0.957820000000     0.156460000000    -0.354139   
O594     O      0.505050000000     0.456960000000     0.120190000000    -0.341166   
O595     O      0.543310000000     0.961090000000     0.259920000000    -0.343573   
O596     O      0.505140000000     0.458510000000     0.296160000000    -0.339822   
O597     O      0.457240000000     0.872570000000     0.156520000000    -0.350966   
O598     O      0.958350000000     0.910790000000     0.120250000000    -0.339794   
O599     O      0.501010000000     0.860900000000     0.208700000000    -0.513914   
O600     O      0.923620000000     0.849820000000     0.207750000000    -0.325868   
O601     O      0.556250000000     0.915640000000     0.210160000000    -0.340308   
O602     O      0.565270000000     0.493000000000     0.206960000000    -0.513607   
O603     O      0.492540000000     0.923690000000     0.238830000000    -0.610591   
O604     O      0.492650000000     0.923530000000     0.177340000000    -0.468614   
O605     O      0.922680000000     0.922640000000     0.241280000000    -0.474622   
O606     O      0.492910000000     0.493310000000     0.175480000000    -0.623057   
O607     O      0.922800000000     0.922850000000     0.175550000000    -0.623822   
O608     O      0.493080000000     0.493560000000     0.241220000000    -0.473755   
O609     O      0.543360000000     0.656430000000     0.957580000000    -0.354422   
O610     O      0.505150000000     0.620160000000     0.458740000000    -0.34087    
O611     O      0.455680000000     0.759790000000     0.043650000000    -0.348941   
O612     O      0.958050000000     0.796030000000     0.005470000000    -0.341943   
O613     O      0.457500000000     0.656370000000     0.043650000000    -0.351138   
O614     O      0.958650000000     0.620130000000     0.005410000000    -0.342485   
O615     O      0.543290000000     0.759890000000     0.956090000000    -0.343545   
O616     O      0.505070000000     0.796100000000     0.458350000000    -0.339916   
O617     O      0.556210000000     0.709430000000     0.000710000000    -0.343281   
O618     O      0.565280000000     0.707450000000     0.423260000000    -0.513425   
O619     O      0.501010000000     0.708740000000     0.055390000000    -0.513403   
O620     O      0.923620000000     0.707420000000     0.066460000000    -0.325707   
O621     O      0.492690000000     0.677240000000     0.992730000000    -0.46607    
O622     O      0.492510000000     0.738700000000     0.992620000000    -0.605131   
O623     O      0.959890000000     0.759870000000     0.372750000000    -0.348345   
O624     O      0.457590000000     0.796080000000     0.410960000000    -0.340172   
O625     O      0.872430000000     0.656360000000     0.458570000000    -0.355168   
O626     O      0.910660000000     0.620110000000     0.957500000000    -0.340537   
O627     O      0.872420000000     0.759820000000     0.460520000000    -0.344282   
O628     O      0.910610000000     0.796050000000     0.958140000000    -0.339393   
O629     O      0.958410000000     0.656440000000     0.372650000000    -0.350442   
O630     O      0.457200000000     0.620180000000     0.410870000000    -0.34035    
O631     O      0.914730000000     0.708690000000     0.360980000000    -0.51355    
O632     O      0.492120000000     0.707610000000     0.349890000000    -0.326231   
O633     O      0.859530000000     0.709540000000     0.415660000000    -0.340587   
O634     O      0.850460000000     0.707240000000     0.993090000000    -0.509061   
O635     O      0.923210000000     0.738710000000     0.423770000000    -0.610665   
O636     O      0.923080000000     0.677240000000     0.423600000000    -0.468745   
O637     O      0.493090000000     0.741190000000     0.422720000000    -0.473886   
O638     O      0.922850000000     0.675410000000     0.993420000000    -0.618534   
O639     O      0.492910000000     0.675470000000     0.422920000000    -0.623265   
O640     O      0.922640000000     0.741130000000     0.993650000000    -0.471997   
O641     O      0.759620000000     0.543530000000     0.957710000000    -0.354662   
O642     O      0.795880000000     0.505320000000     0.458690000000    -0.341154   
O643     O      0.656120000000     0.455430000000     0.043650000000    -0.349058   
O644     O      0.619890000000     0.957930000000     0.005450000000    -0.34185    
O645     O      0.759530000000     0.458230000000     0.043730000000    -0.351189   
O646     O      0.795800000000     0.959240000000     0.005510000000    -0.342414   
O647     O      0.656150000000     0.543540000000     0.955940000000    -0.343737   
O648     O      0.619910000000     0.505370000000     0.458440000000    -0.340008   
O649     O      0.706520000000     0.556420000000     0.000720000000    -0.343303   
O650     O      0.708680000000     0.565480000000     0.423280000000    -0.513064   
O651     O      0.706740000000     0.501230000000     0.055440000000    -0.513531   
O652     O      0.708740000000     0.923890000000     0.066500000000    -0.326642   
O653     O      0.738730000000     0.492890000000     0.992770000000    -0.466238   
O654     O      0.677240000000     0.492770000000     0.992630000000    -0.604935   
O655     O      0.656180000000     0.961010000000     0.372750000000    -0.348463   
O656     O      0.619930000000     0.458400000000     0.410920000000    -0.339891   
O657     O      0.759560000000     0.872630000000     0.458920000000    -0.354924   
O658     O      0.795840000000     0.910830000000     0.957850000000    -0.3402     
O659     O      0.656080000000     0.872710000000     0.460250000000    -0.344137   
O660     O      0.619860000000     0.910910000000     0.957870000000    -0.339552   
O661     O      0.759620000000     0.957760000000     0.372760000000    -0.350059   
O662     O      0.795860000000     0.456860000000     0.411010000000    -0.340541   
O663     O      0.706650000000     0.915010000000     0.360960000000    -0.513868   
O664     O      0.708950000000     0.492330000000     0.349930000000    -0.327082   
O665     O      0.706620000000     0.859800000000     0.415690000000    -0.3403     
O666     O      0.708480000000     0.850720000000     0.993140000000    -0.50889    
O667     O      0.677240000000     0.923470000000     0.423770000000    -0.610167   
O668     O      0.738730000000     0.923300000000     0.423680000000    -0.468662   
O669     O      0.674850000000     0.493320000000     0.422750000000    -0.473897   
O670     O      0.740520000000     0.923100000000     0.993510000000    -0.618307   
O671     O      0.740590000000     0.493100000000     0.422940000000    -0.622985   
O672     O      0.674790000000     0.922910000000     0.993660000000    -0.47198    
O673     O      0.872410000000     0.458200000000     0.656530000000    -0.354736   
O674     O      0.910600000000     0.959120000000     0.620240000000    -0.34041    
O675     O      0.959990000000     0.543550000000     0.759890000000    -0.348244   
O676     O      0.457500000000     0.505380000000     0.796130000000    -0.340102   
O677     O      0.958330000000     0.543550000000     0.656450000000    -0.350693   
O678     O      0.457280000000     0.505320000000     0.620200000000    -0.340527   
O679     O      0.872460000000     0.455270000000     0.759980000000    -0.344109   
O680     O      0.910650000000     0.957780000000     0.796200000000    -0.339233   
O681     O      0.859490000000     0.500560000000     0.710110000000    -0.340124   
O682     O      0.850470000000     0.923180000000     0.707140000000    -0.513534   
O683     O      0.914740000000     0.555290000000     0.708760000000    -0.513805   
O684     O      0.492120000000     0.566350000000     0.707560000000    -0.326264   
O685     O      0.923060000000     0.492630000000     0.677350000000    -0.46868    
O686     O      0.923220000000     0.492520000000     0.738830000000    -0.610526   
O687     O      0.455930000000     0.872670000000     0.759960000000    -0.348365   
O688     O      0.958340000000     0.910870000000     0.796180000000    -0.339387   
O689     O      0.543280000000     0.957820000000     0.656460000000    -0.354123   
O690     O      0.505050000000     0.456960000000     0.620190000000    -0.34106    
O691     O      0.543310000000     0.961090000000     0.759920000000    -0.34359    
O692     O      0.505140000000     0.458510000000     0.796160000000    -0.339816   
O693     O      0.457240000000     0.872570000000     0.656520000000    -0.350954   
O694     O      0.958350000000     0.910790000000     0.620250000000    -0.339687   
O695     O      0.501010000000     0.860900000000     0.708700000000    -0.513929   
O696     O      0.923620000000     0.849820000000     0.707750000000    -0.325861   
O697     O      0.556260000000     0.915640000000     0.710160000000    -0.340232   
O698     O      0.565270000000     0.493000000000     0.706960000000    -0.513617   
O699     O      0.492540000000     0.923690000000     0.738830000000    -0.610587   
O700     O      0.492650000000     0.923530000000     0.677350000000    -0.468671   
O701     O      0.922680000000     0.922640000000     0.741280000000    -0.47464    
O702     O      0.492910000000     0.493310000000     0.675480000000    -0.623072   
O703     O      0.922800000000     0.922850000000     0.675550000000    -0.623844   
O704     O      0.493080000000     0.493560000000     0.741220000000    -0.473769   
O705     O      0.543360000000     0.656430000000     0.457580000000    -0.354942   
O706     O      0.505150000000     0.620160000000     0.958740000000    -0.340258   
O707     O      0.455680000000     0.759790000000     0.543650000000    -0.348651   
O708     O      0.958050000000     0.796030000000     0.505470000000    -0.339358   
O709     O      0.457500000000     0.656370000000     0.543650000000    -0.350892   
O710     O      0.958650000000     0.620120000000     0.505410000000    -0.339822   
O711     O      0.543290000000     0.759890000000     0.456090000000    -0.344132   
O712     O      0.505070000000     0.796100000000     0.958350000000    -0.339184   
O713     O      0.556210000000     0.709430000000     0.500710000000    -0.340651   
O714     O      0.565280000000     0.707450000000     0.923260000000    -0.513486   
O715     O      0.501010000000     0.708740000000     0.555390000000    -0.513771   
O716     O      0.923620000000     0.707420000000     0.566470000000    -0.326069   
O717     O      0.492690000000     0.677240000000     0.492730000000    -0.468448   
O718     O      0.492510000000     0.738700000000     0.492620000000    -0.610169   
O719     O      0.959890000000     0.759870000000     0.872750000000    -0.348422   
O720     O      0.457590000000     0.796080000000     0.910960000000    -0.340208   
O721     O      0.872430000000     0.656360000000     0.958570000000    -0.35478    
O722     O      0.910660000000     0.620110000000     0.457500000000    -0.341193   
O723     O      0.872420000000     0.759820000000     0.960520000000    -0.34405    
O724     O      0.910610000000     0.796050000000     0.458140000000    -0.339933   
O725     O      0.958410000000     0.656440000000     0.872650000000    -0.350517   
O726     O      0.457200000000     0.620180000000     0.910870000000    -0.340388   
O727     O      0.914730000000     0.708690000000     0.860980000000    -0.513536   
O728     O      0.492120000000     0.707610000000     0.849890000000    -0.326255   
O729     O      0.859530000000     0.709540000000     0.915660000000    -0.340585   
O730     O      0.850460000000     0.707240000000     0.493090000000    -0.513536   
O731     O      0.923210000000     0.738710000000     0.923770000000    -0.610777   
O732     O      0.923080000000     0.677240000000     0.923600000000    -0.468901   
O733     O      0.493090000000     0.741190000000     0.922720000000    -0.474247   
O734     O      0.922850000000     0.675410000000     0.493420000000    -0.623655   
O735     O      0.492910000000     0.675470000000     0.922920000000    -0.623618   
O736     O      0.922640000000     0.741130000000     0.493650000000    -0.474312   
O737     O      0.759620000000     0.543530000000     0.457710000000    -0.355179   
O738     O      0.795880000000     0.505320000000     0.958690000000    -0.340535   
O739     O      0.656120000000     0.455430000000     0.543650000000    -0.348771   
O740     O      0.619890000000     0.957930000000     0.505450000000    -0.339273   
O741     O      0.759530000000     0.458230000000     0.543730000000    -0.350951   
O742     O      0.795800000000     0.959240000000     0.505510000000    -0.33984    
O743     O      0.656150000000     0.543540000000     0.455940000000    -0.344326   
O744     O      0.619910000000     0.505370000000     0.958440000000    -0.339285   
O745     O      0.706520000000     0.556420000000     0.500720000000    -0.340682   
O746     O      0.708680000000     0.565480000000     0.923280000000    -0.513125   
O747     O      0.706740000000     0.501230000000     0.555440000000    -0.513903   
O748     O      0.708740000000     0.923890000000     0.566500000000    -0.32701    
O749     O      0.738730000000     0.492890000000     0.492770000000    -0.468617   
O750     O      0.677240000000     0.492770000000     0.492630000000    -0.609979   
O751     O      0.656180000000     0.961010000000     0.872750000000    -0.348494   
O752     O      0.619930000000     0.458390000000     0.910920000000    -0.339928   
O753     O      0.759560000000     0.872630000000     0.958920000000    -0.354539   
O754     O      0.795840000000     0.910830000000     0.457850000000    -0.340868   
O755     O      0.656080000000     0.872710000000     0.960250000000    -0.343897   
O756     O      0.619860000000     0.910910000000     0.457870000000    -0.340091   
O757     O      0.759620000000     0.957760000000     0.872760000000    -0.350094   
O758     O      0.795860000000     0.456860000000     0.911010000000    -0.340561   
O759     O      0.706650000000     0.915010000000     0.860960000000    -0.513869   
O760     O      0.708950000000     0.492330000000     0.849930000000    -0.327103   
O761     O      0.706620000000     0.859800000000     0.915690000000    -0.340301   
O762     O      0.708480000000     0.850720000000     0.493140000000    -0.513362   
O763     O      0.677240000000     0.923470000000     0.923770000000    -0.610377   
O764     O      0.738730000000     0.923300000000     0.923680000000    -0.468896   
O765     O      0.674850000000     0.493320000000     0.922750000000    -0.474265   
O766     O      0.740520000000     0.923100000000     0.493510000000    -0.623422   
O767     O      0.740590000000     0.493100000000     0.922940000000    -0.623333   
O768     O      0.674790000000     0.922910000000     0.493660000000    -0.474302   
Zr1      Zr     0.394410000000     0.456840000000     0.208270000000     1.29389    
Zr2      Zr     0.958690000000     0.021540000000     0.208180000000     1.28642    
Zr3      Zr     0.457050000000     0.394640000000     0.208230000000     1.29434    
Zr4      Zr     0.021330000000     0.959340000000     0.208220000000     1.28563    
Zr5      Zr     0.957850000000     0.458070000000     0.150080000000     1.2642     
Zr6      Zr     0.457890000000     0.958110000000     0.266300000000     1.26113    
Zr7      Zr     0.021330000000     0.208160000000     0.456930000000     1.28553    
Zr8      Zr     0.457060000000     0.208090000000     0.021640000000     1.28633    
Zr9      Zr     0.958680000000     0.208150000000     0.394720000000     1.29498    
Zr10     Zr     0.394410000000     0.208110000000     0.959430000000     1.29373    
Zr11     Zr     0.457890000000     0.149990000000     0.458160000000     1.2622     
Zr12     Zr     0.957850000000     0.266200000000     0.958200000000     1.26315    
Zr13     Zr     0.207870000000     0.021550000000     0.456950000000     1.28516    
Zr14     Zr     0.207820000000     0.457310000000     0.021680000000     1.286      
Zr15     Zr     0.207870000000     0.958910000000     0.394750000000     1.29439    
Zr16     Zr     0.207820000000     0.394660000000     0.959480000000     1.29376    
Zr17     Zr     0.265990000000     0.458090000000     0.458240000000     1.26231    
Zr18     Zr     0.149760000000     0.958120000000     0.958200000000     1.26295    
Zr19     Zr     0.394410000000     0.456840000000     0.708270000000     1.29392    
Zr20     Zr     0.958690000000     0.021540000000     0.708180000000     1.28643    
Zr21     Zr     0.457050000000     0.394640000000     0.708230000000     1.29437    
Zr22     Zr     0.021330000000     0.959340000000     0.708220000000     1.28564    
Zr23     Zr     0.957850000000     0.458070000000     0.650080000000     1.26422    
Zr24     Zr     0.457890000000     0.958110000000     0.766300000000     1.2611     
Zr25     Zr     0.021330000000     0.208160000000     0.956930000000     1.28739    
Zr26     Zr     0.457060000000     0.208090000000     0.521640000000     1.29445    
Zr27     Zr     0.958690000000     0.208150000000     0.894720000000     1.29479    
Zr28     Zr     0.394410000000     0.208110000000     0.459430000000     1.29351    
Zr29     Zr     0.457890000000     0.149990000000     0.958160000000     1.26422    
Zr30     Zr     0.957850000000     0.266200000000     0.458200000000     1.26113    
Zr31     Zr     0.207870000000     0.021550000000     0.956950000000     1.28698    
Zr32     Zr     0.207820000000     0.457310000000     0.521680000000     1.29419    
Zr33     Zr     0.207870000000     0.958910000000     0.894750000000     1.29424    
Zr34     Zr     0.207820000000     0.394660000000     0.459480000000     1.29353    
Zr35     Zr     0.265990000000     0.458090000000     0.958240000000     1.26431    
Zr36     Zr     0.149760000000     0.958120000000     0.458200000000     1.26093    
Zr37     Zr     0.394410000000     0.956840000000     0.208270000000     1.2957     
Zr38     Zr     0.958690000000     0.521540000000     0.208180000000     1.29462    
Zr39     Zr     0.457050000000     0.894640000000     0.208230000000     1.29418    
Zr40     Zr     0.021330000000     0.459340000000     0.208220000000     1.28537    
Zr41     Zr     0.957850000000     0.958070000000     0.150080000000     1.26626    
Zr42     Zr     0.457890000000     0.458110000000     0.266300000000     1.25915    
Zr43     Zr     0.021330000000     0.708160000000     0.456930000000     1.28542    
Zr44     Zr     0.457060000000     0.708090000000     0.021640000000     1.28627    
Zr45     Zr     0.958680000000     0.708150000000     0.394720000000     1.29486    
Zr46     Zr     0.394410000000     0.708110000000     0.959430000000     1.29371    
Zr47     Zr     0.457890000000     0.649990000000     0.458160000000     1.26229    
Zr48     Zr     0.957850000000     0.766200000000     0.958200000000     1.26322    
Zr49     Zr     0.207870000000     0.521550000000     0.456950000000     1.29338    
Zr50     Zr     0.207820000000     0.957310000000     0.021680000000     1.28781    
Zr51     Zr     0.207870000000     0.458910000000     0.394750000000     1.294      
Zr52     Zr     0.207820000000     0.894660000000     0.959480000000     1.29356    
Zr53     Zr     0.265990000000     0.958090000000     0.458240000000     1.26431    
Zr54     Zr     0.149760000000     0.458120000000     0.958200000000     1.26092    
Zr55     Zr     0.394410000000     0.956840000000     0.708270000000     1.29578    
Zr56     Zr     0.958690000000     0.521540000000     0.708180000000     1.29465    
Zr57     Zr     0.457050000000     0.894640000000     0.708230000000     1.29421    
Zr58     Zr     0.021330000000     0.459340000000     0.708220000000     1.28537    
Zr59     Zr     0.957850000000     0.958070000000     0.650080000000     1.26628    
Zr60     Zr     0.457890000000     0.458110000000     0.766300000000     1.25911    
Zr61     Zr     0.021340000000     0.708160000000     0.956930000000     1.28736    
Zr62     Zr     0.457060000000     0.708090000000     0.521640000000     1.2944     
Zr63     Zr     0.958690000000     0.708150000000     0.894710000000     1.29474    
Zr64     Zr     0.394410000000     0.708110000000     0.459430000000     1.29352    
Zr65     Zr     0.457890000000     0.649990000000     0.958160000000     1.26433    
Zr66     Zr     0.957850000000     0.766200000000     0.458200000000     1.26116    
Zr67     Zr     0.207870000000     0.521550000000     0.956950000000     1.29522    
Zr68     Zr     0.207820000000     0.957310000000     0.521680000000     1.296      
Zr69     Zr     0.207870000000     0.458910000000     0.894750000000     1.29388    
Zr70     Zr     0.207820000000     0.894660000000     0.459480000000     1.29338    
Zr71     Zr     0.265990000000     0.958090000000     0.958240000000     1.26631    
Zr72     Zr     0.149760000000     0.458120000000     0.458200000000     1.2589     
Zr73     Zr     0.894410000000     0.456840000000     0.208270000000     1.29368    
Zr74     Zr     0.458690000000     0.021540000000     0.208180000000     1.28607    
Zr75     Zr     0.957050000000     0.394640000000     0.208230000000     1.29623    
Zr76     Zr     0.521330000000     0.959340000000     0.208220000000     1.29391    
Zr77     Zr     0.457850000000     0.458070000000     0.150080000000     1.26219    
Zr78     Zr     0.957890000000     0.958110000000     0.266300000000     1.26323    
Zr79     Zr     0.521340000000     0.208160000000     0.456930000000     1.29383    
Zr80     Zr     0.957060000000     0.208090000000     0.021640000000     1.28813    
Zr81     Zr     0.458690000000     0.208150000000     0.394720000000     1.29456    
Zr82     Zr     0.894410000000     0.208110000000     0.959430000000     1.29351    
Zr83     Zr     0.957890000000     0.149990000000     0.458160000000     1.26418    
Zr84     Zr     0.457850000000     0.266200000000     0.958200000000     1.26114    
Zr85     Zr     0.707870000000     0.021550000000     0.456950000000     1.28518    
Zr86     Zr     0.707820000000     0.457310000000     0.021680000000     1.28596    
Zr87     Zr     0.707870000000     0.958910000000     0.394750000000     1.29443    
Zr88     Zr     0.707820000000     0.394660000000     0.959480000000     1.29373    
Zr89     Zr     0.765990000000     0.458090000000     0.458240000000     1.26232    
Zr90     Zr     0.649760000000     0.958120000000     0.958200000000     1.263      
Zr91     Zr     0.894410000000     0.456840000000     0.708270000000     1.29371    
Zr92     Zr     0.458690000000     0.021540000000     0.708180000000     1.28609    
Zr93     Zr     0.957050000000     0.394640000000     0.708230000000     1.29626    
Zr94     Zr     0.521330000000     0.959340000000     0.708220000000     1.29389    
Zr95     Zr     0.457850000000     0.458070000000     0.650080000000     1.2622     
Zr96     Zr     0.957890000000     0.958110000000     0.766300000000     1.2632     
Zr97     Zr     0.521340000000     0.208160000000     0.956930000000     1.29567    
Zr98     Zr     0.957060000000     0.208090000000     0.521640000000     1.29626    
Zr99     Zr     0.458690000000     0.208150000000     0.894710000000     1.2945     
Zr100    Zr     0.894410000000     0.208110000000     0.459430000000     1.29333    
Zr101    Zr     0.957890000000     0.149990000000     0.958160000000     1.26617    
Zr102    Zr     0.457850000000     0.266200000000     0.458200000000     1.2591     
Zr103    Zr     0.707870000000     0.021550000000     0.956950000000     1.28702    
Zr104    Zr     0.707820000000     0.457310000000     0.521680000000     1.29416    
Zr105    Zr     0.707870000000     0.958910000000     0.894750000000     1.29428    
Zr106    Zr     0.707820000000     0.394660000000     0.459480000000     1.29349    
Zr107    Zr     0.765990000000     0.458090000000     0.958240000000     1.26432    
Zr108    Zr     0.649760000000     0.958120000000     0.458200000000     1.26097    
Zr109    Zr     0.894410000000     0.956840000000     0.208270000000     1.29553    
Zr110    Zr     0.458690000000     0.521540000000     0.208180000000     1.29428    
Zr111    Zr     0.957050000000     0.894640000000     0.208230000000     1.29607    
Zr112    Zr     0.521330000000     0.459340000000     0.208220000000     1.29366    
Zr113    Zr     0.457850000000     0.958070000000     0.150080000000     1.26425    
Zr114    Zr     0.957890000000     0.458110000000     0.266300000000     1.26125    
Zr115    Zr     0.521340000000     0.708160000000     0.456930000000     1.29374    
Zr116    Zr     0.957060000000     0.708090000000     0.021640000000     1.28808    
Zr117    Zr     0.458690000000     0.708150000000     0.394710000000     1.29452    
Zr118    Zr     0.894410000000     0.708110000000     0.959430000000     1.2935     
Zr119    Zr     0.957890000000     0.649990000000     0.458160000000     1.26424    
Zr120    Zr     0.457850000000     0.766200000000     0.958200000000     1.26118    
Zr121    Zr     0.707870000000     0.521550000000     0.456950000000     1.29342    
Zr122    Zr     0.707820000000     0.957310000000     0.021680000000     1.28777    
Zr123    Zr     0.707870000000     0.458910000000     0.394750000000     1.29406    
Zr124    Zr     0.707820000000     0.894660000000     0.959480000000     1.29352    
Zr125    Zr     0.765990000000     0.958090000000     0.458240000000     1.26432    
Zr126    Zr     0.649760000000     0.458120000000     0.958200000000     1.26096    
Zr127    Zr     0.894410000000     0.956840000000     0.708270000000     1.29556    
Zr128    Zr     0.458690000000     0.521540000000     0.708180000000     1.29431    
Zr129    Zr     0.957050000000     0.894640000000     0.708230000000     1.2961     
Zr130    Zr     0.521330000000     0.459340000000     0.708220000000     1.29364    
Zr131    Zr     0.457850000000     0.958070000000     0.650080000000     1.26427    
Zr132    Zr     0.957890000000     0.458110000000     0.766300000000     1.26122    
Zr133    Zr     0.521340000000     0.708160000000     0.956930000000     1.29558    
Zr134    Zr     0.957060000000     0.708090000000     0.521640000000     1.29622    
Zr135    Zr     0.458690000000     0.708150000000     0.894710000000     1.29438    
Zr136    Zr     0.894410000000     0.708110000000     0.459430000000     1.29331    
Zr137    Zr     0.957890000000     0.649990000000     0.958160000000     1.26632    
Zr138    Zr     0.457850000000     0.766200000000     0.458200000000     1.25913    
Zr139    Zr     0.707870000000     0.521550000000     0.956950000000     1.29526    
Zr140    Zr     0.707820000000     0.957310000000     0.521680000000     1.29598    
Zr141    Zr     0.707870000000     0.458910000000     0.894750000000     1.29391    
Zr142    Zr     0.707820000000     0.894660000000     0.459480000000     1.29334    
Zr143    Zr     0.765990000000     0.958090000000     0.958240000000     1.26632    
Zr144    Zr     0.649760000000     0.458120000000     0.458200000000     1.25893    


