data_structure

_audit_creation_method RASPA-1.0
_audit_creation_date 2023-5-19
_audit_author_name 'Poobodin Mano'

_cell_length_a    45.5848
_cell_length_b    45.8942
_cell_length_c    69.7022
_cell_angle_alpha 90
_cell_angle_beta  90
_cell_angle_gamma 90
_cell_volume      145822

_symmetry_cell_setting          triclinic
_symmetry_space_group_name_Hall 'P 1'
_symmetry_space_group_name_H-M  'P 1'
_symmetry_Int_Tables_number     1

_symmetry_equiv_pos_as_xyz 'x,y,z'

loop_
_atom_site_label
_atom_site_type_symbol
_atom_site_fract_x
_atom_site_fract_y
_atom_site_fract_z
_atom_site_charge
C1       C      0.498200000000     0.494950000000     0.495320000000     0.382218   
C2       C      0.100910000000     0.496390000000     0.395270000000     0.383195   
C3       C      0.099660000000     0.495120000000     0.495340000000     0.381066   
C4       C      0.496860000000     0.496350000000     0.395240000000     0.384458   
C5       C      0.496780000000     0.096250000000     0.395260000000     0.383174   
C6       C      0.099440000000     0.097700000000     0.495330000000     0.38213    
C7       C      0.100850000000     0.096290000000     0.395260000000     0.384367   
C8       C      0.497970000000     0.097500000000     0.495320000000     0.38142    
C9       C      0.248180000000     0.347670000000     0.145290000000     0.382271   
C10      C      0.350890000000     0.346270000000     0.245340000000     0.383209   
C11      C      0.349640000000     0.347530000000     0.145280000000     0.38129    
C12      C      0.246830000000     0.346270000000     0.245370000000     0.38412    
C13      C      0.246800000000     0.246370000000     0.245350000000     0.383073   
C14      C      0.349460000000     0.244960000000     0.145290000000     0.382527   
C15      C      0.350850000000     0.246370000000     0.245360000000     0.384133   
C16      C      0.247990000000     0.245110000000     0.145290000000     0.381682   
C17      C      0.106890000000     0.106580000000     0.028730000000     0.0701412  
C18      C      0.121260000000     0.120980000000     0.043670000000    -0.0929494  
C19      C      0.142950000000     0.141670000000     0.039590000000     0.0487311  
C20      C      0.149580000000     0.147470000000     0.020350000000    -0.0941338  
C21      C      0.134760000000     0.132700000000     0.005750000000     0.071983   
C22      C      0.158650000000     0.157020000000     0.055320000000    -0.00730156 
C23      C      0.143410000000     0.166710000000     0.071650000000    -0.035707   
C24      C      0.158180000000     0.181070000000     0.086450000000    -0.0360737  
C25      C      0.188560000000     0.186080000000     0.085280000000    -0.00685771 
C26      C      0.203800000000     0.176400000000     0.068930000000    -0.036067   
C27      C      0.189020000000     0.162040000000     0.054140000000    -0.0357183  
C28      C      0.204270000000     0.201400000000     0.101010000000     0.0478747  
C29      C      0.197640000000     0.195570000000     0.120240000000    -0.0920846  
C30      C      0.212510000000     0.210270000000     0.134840000000     0.0676557  
C31      C      0.240430000000     0.236370000000     0.111880000000     0.0695646  
C32      C      0.226000000000     0.222050000000     0.096940000000    -0.0923993  
C33      C      0.210660000000     0.212200000000     0.255810000000     0.0682811  
C34      C      0.196050000000     0.197240000000     0.270410000000    -0.0917864  
C35      C      0.203310000000     0.202410000000     0.289630000000     0.0481344  
C36      C      0.225260000000     0.222830000000     0.293690000000    -0.0921352  
C37      C      0.239470000000     0.237390000000     0.278760000000     0.0701941  
C38      C      0.188160000000     0.186510000000     0.305350000000    -0.00666642 
C39      C      0.181750000000     0.156660000000     0.303530000000    -0.0359495  
C40      C      0.167580000000     0.141690000000     0.318330000000    -0.0357101  
C41      C      0.159480000000     0.156200000000     0.335280000000    -0.00695605 
C42      C      0.165890000000     0.186040000000     0.337090000000    -0.0357053  
C43      C      0.180060000000     0.201010000000     0.322300000000    -0.0357747  
C44      C      0.144320000000     0.140300000000     0.351000000000     0.0486922  
C45      C      0.122350000000     0.119890000000     0.346920000000    -0.0925838  
C46      C      0.108150000000     0.105320000000     0.361860000000     0.0706494  
C47      C      0.136970000000     0.130470000000     0.384810000000     0.0707061  
C48      C      0.151580000000     0.145440000000     0.370220000000    -0.0928409  
C49      C      0.107160000000     0.486350000000     0.028740000000     0.0702028  
C50      C      0.121590000000     0.472040000000     0.043700000000    -0.0925533  
C51      C      0.143330000000     0.451400000000     0.039640000000     0.0486558  
C52      C      0.149990000000     0.445590000000     0.020400000000    -0.0930398  
C53      C      0.135160000000     0.460310000000     0.005790000000     0.0713752  
C54      C      0.159030000000     0.436070000000     0.055370000000    -0.00683024 
C55      C      0.167780000000     0.451220000000     0.071940000000    -0.0357234  
C56      C      0.182570000000     0.436820000000     0.086720000000    -0.0357018  
C57      C      0.188960000000     0.406930000000     0.085290000000    -0.00689496 
C58      C      0.180200000000     0.391780000000     0.068720000000    -0.0357448  
C59      C      0.165420000000     0.406180000000     0.053930000000    -0.0356573  
C60      C      0.204650000000     0.391600000000     0.101020000000     0.0482812  
C61      C      0.198010000000     0.397400000000     0.120260000000    -0.0928298  
C62      C      0.212810000000     0.382620000000     0.134860000000     0.068435   
C63      C      0.240770000000     0.356560000000     0.111890000000     0.0699077  
C64      C      0.226360000000     0.370930000000     0.096950000000    -0.0924773  
C65      C      0.356900000000     0.236060000000     0.111880000000     0.0696769  
C66      C      0.371270000000     0.221650000000     0.096950000000    -0.0926151  
C67      C      0.392970000000     0.200970000000     0.101030000000     0.0480915  
C68      C      0.399600000000     0.195180000000     0.120270000000    -0.0928476  
C69      C      0.384790000000     0.209960000000     0.134870000000     0.0682921  
C70      C      0.408650000000     0.185610000000     0.085310000000    -0.0070715  
C71      C      0.393400000000     0.175910000000     0.068980000000    -0.0358071  
C72      C      0.408170000000     0.161540000000     0.054180000000    -0.0359393  
C73      C      0.438550000000     0.156540000000     0.055340000000    -0.0070257  
C74      C      0.453800000000     0.166230000000     0.071680000000    -0.0359128  
C75      C      0.439030000000     0.180590000000     0.086480000000    -0.0359769  
C76      C      0.454250000000     0.141220000000     0.039610000000     0.0484376  
C77      C      0.447610000000     0.147030000000     0.020380000000    -0.0930844  
C78      C      0.462480000000     0.132340000000     0.005770000000     0.0711598  
C79      C      0.490410000000     0.106240000000     0.028730000000     0.0699174  
C80      C      0.475990000000     0.120570000000     0.043680000000    -0.0926713  
C81      C      0.358250000000     0.355200000000     0.278750000000     0.0702728  
C82      C      0.372440000000     0.369780000000     0.293680000000    -0.0921527  
C83      C      0.394380000000     0.390210000000     0.289630000000     0.0482468  
C84      C      0.401640000000     0.395380000000     0.270410000000    -0.0917925  
C85      C      0.387000000000     0.380450000000     0.255810000000     0.0685305  
C86      C      0.409520000000     0.406100000000     0.305350000000    -0.00665323 
C87      C      0.393670000000     0.416450000000     0.321260000000    -0.0358159  
C88      C      0.407890000000     0.431440000000     0.336030000000    -0.0356261  
C89      C      0.438290000000     0.436450000000     0.335240000000    -0.00688786 
C90      C      0.454140000000     0.426100000000     0.319320000000    -0.0355743  
C91      C      0.439920000000     0.411120000000     0.304560000000    -0.0356542  
C92      C      0.453430000000     0.452350000000     0.350960000000     0.0489318  
C93      C      0.446160000000     0.447190000000     0.370170000000    -0.0928786  
C94      C      0.460770000000     0.462140000000     0.384770000000     0.0708759  
C95      C      0.489550000000     0.487360000000     0.361840000000     0.0708265  
C96      C      0.475390000000     0.472770000000     0.346900000000    -0.0925913  
C97      C      0.489440000000     0.105180000000     0.361850000000     0.0702226  
C98      C      0.475260000000     0.119760000000     0.346910000000    -0.0922612  
C99      C      0.453320000000     0.140190000000     0.350970000000     0.0482749  
C100     C      0.446040000000     0.145360000000     0.370180000000    -0.0917904  
C101     C      0.460670000000     0.130430000000     0.384790000000     0.0683907  
C102     C      0.438180000000     0.156090000000     0.335250000000    -0.00661836 
C103     C      0.454040000000     0.166430000000     0.319340000000    -0.0358637  
C104     C      0.439830000000     0.181440000000     0.304570000000    -0.0355788  
C105     C      0.409420000000     0.186450000000     0.305360000000    -0.00685523 
C106     C      0.393570000000     0.176100000000     0.321270000000    -0.0355671  
C107     C      0.407770000000     0.161100000000     0.336030000000    -0.0357792  
C108     C      0.394290000000     0.202360000000     0.289640000000     0.0487998  
C109     C      0.401580000000     0.197220000000     0.270420000000    -0.0927013  
C110     C      0.386950000000     0.212170000000     0.255820000000     0.0706558  
C111     C      0.358180000000     0.237390000000     0.278760000000     0.0709426  
C112     C      0.372340000000     0.222790000000     0.293700000000    -0.092418   
C113     C      0.108280000000     0.487470000000     0.361870000000     0.0703139  
C114     C      0.122450000000     0.472890000000     0.346930000000    -0.0922825  
C115     C      0.144400000000     0.452460000000     0.350980000000     0.0480939  
C116     C      0.151670000000     0.447280000000     0.370210000000    -0.0918044  
C117     C      0.137030000000     0.462220000000     0.384810000000     0.0684272  
C118     C      0.159540000000     0.436560000000     0.335270000000    -0.00672749 
C119     C      0.143680000000     0.426210000000     0.319360000000    -0.0359044  
C120     C      0.157880000000     0.411210000000     0.304590000000    -0.0356771  
C121     C      0.188280000000     0.406190000000     0.305380000000    -0.00695464 
C122     C      0.204140000000     0.416540000000     0.321280000000    -0.035627   
C123     C      0.189940000000     0.431540000000     0.336050000000    -0.0358352  
C124     C      0.203420000000     0.390280000000     0.289650000000     0.0487103  
C125     C      0.196130000000     0.395430000000     0.270430000000    -0.0927569  
C126     C      0.210740000000     0.380480000000     0.255830000000     0.0706146  
C127     C      0.239530000000     0.355260000000     0.278770000000     0.0707707  
C128     C      0.225370000000     0.369860000000     0.293710000000    -0.0925405  
C129     C      0.462830000000     0.459980000000     0.005750000000     0.0721456  
C130     C      0.448030000000     0.445200000000     0.020350000000    -0.0940717  
C131     C      0.454660000000     0.451030000000     0.039590000000     0.0489761  
C132     C      0.476370000000     0.471690000000     0.043660000000    -0.0927169  
C133     C      0.490770000000     0.486060000000     0.028720000000     0.0703469  
C134     C      0.438960000000     0.435690000000     0.055320000000    -0.00709871 
C135     C      0.432570000000     0.405800000000     0.053890000000    -0.0354792  
C136     C      0.417790000000     0.391410000000     0.068670000000    -0.0358738  
C137     C      0.409020000000     0.406570000000     0.085250000000    -0.00660519 
C138     C      0.415400000000     0.436460000000     0.086670000000    -0.0358496  
C139     C      0.430190000000     0.450850000000     0.071890000000    -0.0356199  
C140     C      0.393320000000     0.391240000000     0.100980000000     0.0479013  
C141     C      0.371580000000     0.370590000000     0.096920000000    -0.0921278  
C142     C      0.357150000000     0.356290000000     0.111870000000     0.069733   
C143     C      0.385140000000     0.382350000000     0.134830000000     0.0676185  
C144     C      0.399960000000     0.397070000000     0.120220000000    -0.0917582  
H1       H      0.048750000000     0.483050000000     0.418030000000     0.210033   
H2       H      0.113370000000     0.046270000000     0.473960000000     0.203866   
H3       H      0.048930000000     0.109590000000     0.418030000000     0.209812   
H4       H      0.484280000000     0.046370000000     0.473940000000     0.20412    
H5       H      0.153580000000     0.016690000000     0.447310000000     0.123336   
H6       H      0.157860000000     0.078350000000     0.447210000000     0.185208   
H7       H      0.076440000000     0.145970000000     0.456300000000     0.148286   
H8       H      0.010960000000     0.150960000000     0.432780000000     0.199967   
H9       H      0.444080000000     0.075940000000     0.447250000000     0.125171   
H10      H      0.439810000000     0.014290000000     0.447180000000     0.182909   
H11      H      0.021220000000     0.446670000000     0.456300000000     0.148175   
H12      H      0.086720000000     0.441670000000     0.432780000000     0.199692   
H13      H      0.015460000000     0.150890000000     0.456590000000     0.202822   
H14      H      0.444450000000     0.478260000000     0.444890000000     0.202955   
H15      H      0.082200000000     0.441740000000     0.456590000000     0.202988   
H16      H      0.153210000000     0.114380000000     0.444930000000     0.202864   
H17      H      0.298710000000     0.359590000000     0.222590000000     0.209829   
H18      H      0.363380000000     0.296400000000     0.166660000000     0.20409    
H19      H      0.298960000000     0.233050000000     0.222590000000     0.210037   
H20      H      0.234280000000     0.296240000000     0.166670000000     0.204329   
H21      H      0.403570000000     0.326010000000     0.193290000000     0.125275   
H22      H      0.407870000000     0.264360000000     0.193420000000     0.185587   
H23      H      0.326490000000     0.196680000000     0.184320000000     0.147974   
H24      H      0.261040000000     0.191650000000     0.207840000000     0.19938    
H25      H      0.194090000000     0.266630000000     0.193360000000     0.125406   
H26      H      0.189790000000     0.328290000000     0.193430000000     0.185632   
H27      H      0.271170000000     0.395960000000     0.184320000000     0.148322   
H28      H      0.336650000000     0.400980000000     0.207840000000     0.19943    
H29      H      0.265510000000     0.191730000000     0.184020000000     0.202629   
H30      H      0.194420000000     0.364310000000     0.195720000000     0.203135   
H31      H      0.332150000000     0.400910000000     0.184020000000     0.202989   
H32      H      0.403250000000     0.228330000000     0.195690000000     0.203078   
H33      H      0.090370000000     0.090650000000     0.032650000000     0.0276667  
H34      H      0.115670000000     0.115560000000     0.058350000000     0.0513439  
H35      H      0.165920000000     0.163590000000     0.016540000000     0.0518557  
H36      H      0.140670000000     0.137990000000     0.491100000000     0.0225779  
H37      H      0.119930000000     0.163590000000     0.072870000000     0.0368022  
H38      H      0.145710000000     0.188650000000     0.098700000000     0.036967   
H39      H      0.227280000000     0.179510000000     0.067710000000     0.0368558  
H40      H      0.201500000000     0.154450000000     0.041890000000     0.0365737  
H41      H      0.181270000000     0.179480000000     0.124050000000     0.0515946  
H42      H      0.206620000000     0.204950000000     0.149510000000     0.0268944  
H43      H      0.256980000000     0.252270000000     0.107980000000     0.0274519  
H44      H      0.231600000000     0.227500000000     0.082270000000     0.0514525  
H45      H      0.204240000000     0.207440000000     0.241170000000     0.0272353  
H46      H      0.178930000000     0.181920000000     0.266620000000     0.0519098  
H47      H      0.231830000000     0.227260000000     0.308340000000     0.0516456  
H48      H      0.256430000000     0.252870000000     0.282640000000     0.0277807  
H49      H      0.188110000000     0.144730000000     0.290790000000     0.0369032  
H50      H      0.163370000000     0.118610000000     0.316590000000     0.0371211  
H51      H      0.159530000000     0.197970000000     0.349840000000     0.0372715  
H52      H      0.184270000000     0.224090000000     0.324040000000     0.0374649  
H53      H      0.115780000000     0.115470000000     0.332280000000     0.051694   
H54      H      0.091190000000     0.089850000000     0.357960000000     0.0274851  
H55      H      0.143410000000     0.135200000000     0.399460000000     0.0246147  
H56      H      0.168720000000     0.160740000000     0.374010000000     0.0516115  
H57      H      0.090460000000     0.002100000000     0.032640000000     0.0256037  
H58      H      0.115460000000     0.476930000000     0.058360000000     0.0518404  
H59      H      0.166890000000     0.430040000000     0.016600000000     0.0527266  
H60      H      0.141200000000     0.455150000000     0.491140000000     0.0270413  
H61      H      0.163610000000     0.474360000000     0.073370000000     0.0371278  
H62      H      0.189390000000     0.449230000000     0.099170000000     0.0370865  
H63      H      0.184360000000     0.368650000000     0.067280000000     0.0371868  
H64      H      0.158590000000     0.393770000000     0.041490000000     0.0373402  
H65      H      0.181130000000     0.412970000000     0.124060000000     0.0511007  
H66      H      0.206760000000     0.387770000000     0.149520000000     0.0226657  
H67      H      0.257430000000     0.340790000000     0.107990000000     0.0275604  
H68      H      0.232500000000     0.366050000000     0.082290000000     0.0519226  
H69      H      0.340380000000     0.251990000000     0.107980000000     0.0274409  
H70      H      0.365670000000     0.227070000000     0.082280000000     0.0515508  
H71      H      0.415950000000     0.179060000000     0.124090000000     0.0508656  
H72      H      0.390710000000     0.204670000000     0.149530000000     0.0225788  
H73      H      0.369920000000     0.179030000000     0.067760000000     0.0369018  
H74      H      0.395690000000     0.153960000000     0.041940000000     0.0371319  
H75      H      0.477280000000     0.163120000000     0.072900000000     0.0367879  
H76      H      0.451510000000     0.188190000000     0.098710000000     0.0365254  
H77      H      0.431230000000     0.163120000000     0.016570000000     0.0525152  
H78      H      0.456580000000     0.137650000000     0.491120000000     0.0269456  
H79      H      0.006970000000     0.090350000000     0.032630000000     0.0274295  
H80      H      0.481590000000     0.115130000000     0.058350000000     0.0513116  
H81      H      0.341430000000     0.339580000000     0.282640000000     0.0277823  
H82      H      0.366400000000     0.364790000000     0.308350000000     0.0517801  
H83      H      0.418240000000     0.411250000000     0.266600000000     0.0519797  
H84      H      0.393290000000     0.385370000000     0.241160000000     0.0272332  
H85      H      0.370160000000     0.413360000000     0.322170000000     0.0369595  
H86      H      0.394970000000     0.439500000000     0.347930000000     0.037129   
H87      H      0.477650000000     0.429190000000     0.318410000000     0.0370617  
H88      H      0.452850000000     0.403060000000     0.292640000000     0.0375354  
H89      H      0.429550000000     0.431340000000     0.373980000000     0.0517769  
H90      H      0.454450000000     0.457260000000     0.399420000000     0.0246908  
H91      H      0.006370000000     0.002980000000     0.357950000000     0.0248772  
H92      H      0.481440000000     0.477750000000     0.332240000000     0.0519379  
H93      H      0.006260000000     0.089560000000     0.357960000000     0.027334   
H94      H      0.481300000000     0.114770000000     0.332250000000     0.0518038  
H95      H      0.429440000000     0.161230000000     0.373990000000     0.0519911  
H96      H      0.454370000000     0.135340000000     0.399430000000     0.0271797  
H97      H      0.477550000000     0.163340000000     0.318430000000     0.0372169  
H98      H      0.452760000000     0.189510000000     0.292670000000     0.0372067  
H99      H      0.370060000000     0.179190000000     0.322170000000     0.0372694  
H100     H      0.394840000000     0.153040000000     0.347930000000     0.037619   
H101     H      0.418180000000     0.181360000000     0.266610000000     0.051659   
H102     H      0.393270000000     0.207300000000     0.241180000000     0.0246631  
H103     H      0.341350000000     0.253000000000     0.282660000000     0.0277342  
H104     H      0.366290000000     0.227760000000     0.308370000000     0.052012   
H105     H      0.091470000000     0.003090000000     0.357970000000     0.0251746  
H106     H      0.116420000000     0.477880000000     0.332260000000     0.0515994  
H107     H      0.168270000000     0.431420000000     0.374010000000     0.0519247  
H108     H      0.143330000000     0.457310000000     0.399460000000     0.0272141  
H109     H      0.120160000000     0.429300000000     0.318450000000     0.0368598  
H110     H      0.144950000000     0.403140000000     0.292680000000     0.036984   
H111     H      0.227660000000     0.413450000000     0.322180000000     0.0369881  
H112     H      0.202870000000     0.439610000000     0.347960000000     0.0375007  
H113     H      0.179520000000     0.411280000000     0.266630000000     0.0516451  
H114     H      0.204420000000     0.385360000000     0.241190000000     0.0246807  
H115     H      0.256350000000     0.339640000000     0.282660000000     0.0276046  
H116     H      0.231420000000     0.364890000000     0.308380000000     0.0516994  
H117     H      0.456790000000     0.454830000000     0.491100000000     0.0226683  
H118     H      0.431160000000     0.429630000000     0.016550000000     0.0520312  
H119     H      0.482500000000     0.476580000000     0.058330000000     0.051909   
H120     H      0.007430000000     0.001840000000     0.032630000000     0.025255   
H121     H      0.439420000000     0.393380000000     0.041450000000     0.0372847  
H122     H      0.413620000000     0.368280000000     0.067250000000     0.0372771  
H123     H      0.408560000000     0.448870000000     0.099100000000     0.0371982  
H124     H      0.434350000000     0.473980000000     0.073310000000     0.0371046  
H125     H      0.365450000000     0.365700000000     0.082250000000     0.0517641  
H126     H      0.340460000000     0.340540000000     0.107980000000     0.0276234  
H127     H      0.391170000000     0.387530000000     0.149480000000     0.0270492  
H128     H      0.416860000000     0.412630000000     0.124010000000     0.0518496  
N1       N      0.113600000000     0.112290000000     0.009870000000    -0.189037   
N2       N      0.233740000000     0.230620000000     0.130750000000    -0.189398   
N3       N      0.232330000000     0.232100000000     0.259900000000    -0.189003   
N4       N      0.115300000000     0.110590000000     0.380710000000    -0.189088   
N5       N      0.113900000000     0.480630000000     0.009880000000    -0.188569   
N6       N      0.234020000000     0.362250000000     0.130750000000    -0.189801   
N7       N      0.363620000000     0.230360000000     0.130750000000    -0.189765   
N8       N      0.483710000000     0.111990000000     0.009870000000    -0.188351   
N9       N      0.365360000000     0.360530000000     0.259890000000    -0.189114   
N10      N      0.482410000000     0.482060000000     0.380690000000    -0.18909    
N11      N      0.482310000000     0.110500000000     0.380710000000    -0.189143   
N12      N      0.365310000000     0.232090000000     0.259920000000    -0.18895    
N13      N      0.115390000000     0.482140000000     0.380720000000    -0.189166   
N14      N      0.232390000000     0.360560000000     0.259930000000    -0.188972   
N15      N      0.484030000000     0.480360000000     0.009860000000    -0.188946   
N16      N      0.363890000000     0.362020000000     0.130730000000    -0.189205   
O1       O      0.491070000000     0.488920000000     0.477730000000    -0.364725   
O2       O      0.017770000000     0.014170000000     0.499920000000    -0.356728   
O3       O      0.108270000000     0.490580000000     0.412860000000    -0.3592     
O4       O      0.080520000000     0.014760000000     0.390710000000    -0.355867   
O5       O      0.106830000000     0.489120000000     0.477750000000    -0.361244   
O6       O      0.079960000000     0.014230000000     0.499920000000    -0.355974   
O7       O      0.489530000000     0.490510000000     0.412820000000    -0.354649   
O8       O      0.017210000000     0.014770000000     0.390670000000    -0.355922   
O9       O      0.010790000000     0.451690000000     0.444290000000    -0.340553   
O10      O      0.452630000000     0.497630000000     0.445880000000    -0.51323    
O11      O      0.085930000000     0.452150000000     0.444790000000    -0.513903   
O12      O      0.145360000000     0.496860000000     0.445780000000    -0.327449   
O13      O      0.048750000000     0.499730000000     0.464420000000    -0.469218   
O14      O      0.048760000000     0.499900000000     0.426330000000    -0.610965   
O15      O      0.489420000000     0.102060000000     0.412840000000    -0.359339   
O16      O      0.017190000000     0.077890000000     0.390700000000    -0.353944   
O17      O      0.106580000000     0.103720000000     0.477740000000    -0.364822   
O18      O      0.079870000000     0.078480000000     0.499930000000    -0.35425    
O19      O      0.108160000000     0.102120000000     0.412840000000    -0.354845   
O20      O      0.080500000000     0.077870000000     0.390690000000    -0.353439   
O21      O      0.490800000000     0.103510000000     0.477740000000    -0.361426   
O22      O      0.017670000000     0.078410000000     0.499900000000    -0.354372   
O23      O      0.011740000000     0.140480000000     0.444780000000    -0.514114   
O24      O      0.452320000000     0.095780000000     0.445760000000    -0.327537   
O25      O      0.086890000000     0.140950000000     0.444300000000    -0.340564   
O26      O      0.145040000000     0.095010000000     0.445910000000    -0.513135   
O27      O      0.048920000000     0.092740000000     0.426340000000    -0.610766   
O28      O      0.048910000000     0.092910000000     0.464420000000    -0.469161   
O29      O      0.000990000000     0.046410000000     0.424730000000    -0.47543    
O30      O      0.096420000000     0.046250000000     0.465640000000    -0.624102   
O31      O      0.001230000000     0.046390000000     0.465630000000    -0.624452   
O32      O      0.096690000000     0.046230000000     0.424750000000    -0.475347   
O33      O      0.241040000000     0.353690000000     0.162880000000    -0.364724   
O34      O      0.267760000000     0.328450000000     0.140700000000    -0.354179   
O35      O      0.358240000000     0.352080000000     0.227760000000    -0.359252   
O36      O      0.330490000000     0.327900000000     0.249910000000    -0.35362    
O37      O      0.356810000000     0.353540000000     0.162870000000    -0.361344   
O38      O      0.329960000000     0.328420000000     0.140700000000    -0.353859   
O39      O      0.239500000000     0.352100000000     0.227790000000    -0.354622   
O40      O      0.267190000000     0.327850000000     0.249940000000    -0.353393   
O41      O      0.260730000000     0.390930000000     0.196320000000    -0.340604   
O42      O      0.202600000000     0.344950000000     0.194730000000    -0.513419   
O43      O      0.335870000000     0.390500000000     0.195820000000    -0.513629   
O44      O      0.395320000000     0.345840000000     0.194840000000    -0.327233   
O45      O      0.298730000000     0.342910000000     0.176190000000    -0.469232   
O46      O      0.298740000000     0.342740000000     0.214280000000    -0.610798   
O47      O      0.239440000000     0.240550000000     0.227770000000    -0.359104   
O48      O      0.267200000000     0.264730000000     0.249920000000    -0.353604   
O49      O      0.356600000000     0.238940000000     0.162870000000    -0.36504    
O50      O      0.329880000000     0.264170000000     0.140690000000    -0.354356   
O51      O      0.358180000000     0.240540000000     0.227780000000    -0.354596   
O52      O      0.330500000000     0.264790000000     0.249940000000    -0.353323   
O53      O      0.240830000000     0.239090000000     0.162870000000    -0.361586   
O54      O      0.267680000000     0.264210000000     0.140710000000    -0.35407    
O55      O      0.261800000000     0.202140000000     0.195830000000    -0.513513   
O56      O      0.202340000000     0.246800000000     0.194860000000    -0.327401   
O57      O      0.336940000000     0.201710000000     0.196330000000    -0.340354   
O58      O      0.395070000000     0.247690000000     0.194710000000    -0.513457   
O59      O      0.298940000000     0.249900000000     0.214290000000    -0.610837   
O60      O      0.298940000000     0.249720000000     0.176200000000    -0.469461   
O61      O      0.250990000000     0.296200000000     0.215880000000    -0.475196   
O62      O      0.346420000000     0.296410000000     0.174980000000    -0.624306   
O63      O      0.251230000000     0.296230000000     0.174990000000    -0.624446   
O64      O      0.346690000000     0.296430000000     0.215870000000    -0.475203   
Zr1      Zr     0.005020000000     0.004440000000     0.445270000000     1.28708    
Zr2      Zr     0.092510000000     0.004280000000     0.445290000000     1.28816    
Zr3      Zr     0.005170000000     0.088360000000     0.445280000000     1.29384    
Zr4      Zr     0.092650000000     0.088200000000     0.445280000000     1.29405    
Zr5      Zr     0.048830000000     0.046320000000     0.481250000000     1.27087    
Zr6      Zr     0.048840000000     0.046320000000     0.409370000000     1.26755    
Zr7      Zr     0.255000000000     0.338180000000     0.195340000000     1.29382    
Zr8      Zr     0.342480000000     0.338380000000     0.195320000000     1.29436    
Zr9      Zr     0.255190000000     0.254260000000     0.195320000000     1.29406    
Zr10     Zr     0.342670000000     0.254460000000     0.195330000000     1.29388    
Zr11     Zr     0.298830000000     0.296310000000     0.159370000000     1.27147    
Zr12     Zr     0.298840000000     0.296320000000     0.231250000000     1.26846    
C145     C      0.498200000000     0.494950000000     0.995320000000     0.380291   
C146     C      0.100910000000     0.496390000000     0.895280000000     0.383255   
C147     C      0.099660000000     0.495120000000     0.995340000000     0.379323   
C148     C      0.496860000000     0.496350000000     0.895240000000     0.384583   
C149     C      0.496780000000     0.096250000000     0.895260000000     0.383171   
C150     C      0.099440000000     0.097700000000     0.995330000000     0.3802     
C151     C      0.100850000000     0.096290000000     0.895260000000     0.384352   
C152     C      0.497970000000     0.097500000000     0.995320000000     0.378904   
C153     C      0.248180000000     0.347670000000     0.645290000000     0.382307   
C154     C      0.350890000000     0.346270000000     0.745340000000     0.383211   
C155     C      0.349640000000     0.347530000000     0.645280000000     0.381335   
C156     C      0.246830000000     0.346270000000     0.745370000000     0.384277   
C157     C      0.246800000000     0.246370000000     0.745350000000     0.382947   
C158     C      0.349460000000     0.244960000000     0.645290000000     0.382706   
C159     C      0.350850000000     0.246370000000     0.745370000000     0.384036   
C160     C      0.247990000000     0.245110000000     0.645290000000     0.381726   
C161     C      0.106890000000     0.106580000000     0.528740000000     0.0696135  
C162     C      0.121260000000     0.120980000000     0.543670000000    -0.0927889  
C163     C      0.142950000000     0.141670000000     0.539590000000     0.0480747  
C164     C      0.149580000000     0.147470000000     0.520350000000    -0.0929484  
C165     C      0.134760000000     0.132700000000     0.505750000000     0.0682453  
C166     C      0.158650000000     0.157020000000     0.555320000000    -0.00721129 
C167     C      0.143410000000     0.166710000000     0.571650000000    -0.0357834  
C168     C      0.158180000000     0.181070000000     0.586450000000    -0.0361921  
C169     C      0.188560000000     0.186080000000     0.585270000000    -0.0068153  
C170     C      0.203800000000     0.176400000000     0.568940000000    -0.0361516  
C171     C      0.189020000000     0.162040000000     0.554140000000    -0.0358712  
C172     C      0.204270000000     0.201400000000     0.601010000000     0.0478095  
C173     C      0.197640000000     0.195570000000     0.620240000000    -0.0920788  
C174     C      0.212510000000     0.210270000000     0.634840000000     0.067652   
C175     C      0.240430000000     0.236370000000     0.611890000000     0.0696317  
C176     C      0.226000000000     0.222050000000     0.596940000000    -0.0924244  
C177     C      0.210660000000     0.212200000000     0.755810000000     0.0682238  
C178     C      0.196050000000     0.197240000000     0.770410000000    -0.0917517  
C179     C      0.203310000000     0.202410000000     0.789630000000     0.0481487  
C180     C      0.225260000000     0.222830000000     0.793690000000    -0.0921904  
C181     C      0.239470000000     0.237390000000     0.778760000000     0.070331   
C182     C      0.188160000000     0.186510000000     0.805350000000    -0.00667007 
C183     C      0.181750000000     0.156660000000     0.803530000000    -0.0359455  
C184     C      0.167580000000     0.141690000000     0.818330000000    -0.0357133  
C185     C      0.159480000000     0.156200000000     0.835280000000    -0.00695901 
C186     C      0.165890000000     0.186040000000     0.837090000000    -0.0357196  
C187     C      0.180060000000     0.201010000000     0.822300000000    -0.0357864  
C188     C      0.144320000000     0.140300000000     0.851000000000     0.048645   
C189     C      0.122350000000     0.119890000000     0.846930000000    -0.0924928  
C190     C      0.108150000000     0.105320000000     0.861860000000     0.0706227  
C191     C      0.136970000000     0.130470000000     0.884810000000     0.0706612  
C192     C      0.151580000000     0.145440000000     0.870220000000    -0.0928502  
C193     C      0.107160000000     0.486350000000     0.528750000000     0.0697457  
C194     C      0.121590000000     0.472040000000     0.543700000000    -0.0923137  
C195     C      0.143330000000     0.451400000000     0.539640000000     0.0479647  
C196     C      0.149990000000     0.445590000000     0.520400000000    -0.0918094  
C197     C      0.135160000000     0.460310000000     0.505790000000     0.0675765  
C198     C      0.159030000000     0.436070000000     0.555370000000    -0.00675289 
C199     C      0.167780000000     0.451220000000     0.571940000000    -0.0357816  
C200     C      0.182570000000     0.436820000000     0.586730000000    -0.0358795  
C201     C      0.188960000000     0.406930000000     0.585290000000    -0.00686089 
C202     C      0.180200000000     0.391780000000     0.568720000000    -0.0358323  
C203     C      0.165420000000     0.406180000000     0.553940000000    -0.0357681  
C204     C      0.204650000000     0.391600000000     0.601020000000     0.0482132  
C205     C      0.198010000000     0.397400000000     0.620260000000    -0.0927815  
C206     C      0.212810000000     0.382620000000     0.634860000000     0.0684044  
C207     C      0.240770000000     0.356560000000     0.611890000000     0.0698735  
C208     C      0.226360000000     0.370930000000     0.596950000000    -0.0924799  
C209     C      0.356900000000     0.236060000000     0.611890000000     0.0697051  
C210     C      0.371270000000     0.221650000000     0.596950000000    -0.0925393  
C211     C      0.392970000000     0.200970000000     0.601030000000     0.0480288  
C212     C      0.399600000000     0.195180000000     0.620270000000    -0.0928451  
C213     C      0.384790000000     0.209960000000     0.634870000000     0.0682914  
C214     C      0.408650000000     0.185610000000     0.585310000000    -0.00713153 
C215     C      0.393400000000     0.175910000000     0.568980000000    -0.0358192  
C216     C      0.408170000000     0.161540000000     0.554170000000    -0.0361934  
C217     C      0.438550000000     0.156540000000     0.555340000000    -0.00687409 
C218     C      0.453800000000     0.166230000000     0.571680000000    -0.0360652  
C219     C      0.439030000000     0.180590000000     0.586480000000    -0.0359705  
C220     C      0.454250000000     0.141220000000     0.539610000000     0.0477732  
C221     C      0.447610000000     0.147030000000     0.520380000000    -0.0919163  
C222     C      0.462480000000     0.132340000000     0.505770000000     0.0674612  
C223     C      0.490410000000     0.106240000000     0.528730000000     0.0694989  
C224     C      0.475990000000     0.120570000000     0.543680000000    -0.0925381  
C225     C      0.358250000000     0.355200000000     0.778750000000     0.0702592  
C226     C      0.372440000000     0.369780000000     0.793690000000    -0.0922008  
C227     C      0.394380000000     0.390210000000     0.789630000000     0.0482268  
C228     C      0.401640000000     0.395380000000     0.770410000000    -0.0916907  
C229     C      0.387000000000     0.380450000000     0.755800000000     0.0684319  
C230     C      0.409520000000     0.406100000000     0.805350000000    -0.00661585 
C231     C      0.393670000000     0.416450000000     0.821260000000    -0.0358427  
C232     C      0.407890000000     0.431440000000     0.836030000000    -0.035636   
C233     C      0.438290000000     0.436450000000     0.835240000000    -0.00688346 
C234     C      0.454140000000     0.426100000000     0.819320000000    -0.0355538  
C235     C      0.439920000000     0.411120000000     0.804560000000    -0.0357229  
C236     C      0.453430000000     0.452350000000     0.850960000000     0.0488354  
C237     C      0.446160000000     0.447190000000     0.870180000000    -0.0929326  
C238     C      0.460770000000     0.462140000000     0.884770000000     0.0709011  
C239     C      0.489550000000     0.487360000000     0.861840000000     0.0707659  
C240     C      0.475390000000     0.472770000000     0.846900000000    -0.0924542  
C241     C      0.489440000000     0.105180000000     0.861860000000     0.0702874  
C242     C      0.475260000000     0.119760000000     0.846910000000    -0.0922606  
C243     C      0.453320000000     0.140190000000     0.850970000000     0.0482302  
C244     C      0.446040000000     0.145360000000     0.870190000000    -0.0918688  
C245     C      0.460670000000     0.130430000000     0.884790000000     0.0684267  
C246     C      0.438180000000     0.156090000000     0.835250000000    -0.00662225 
C247     C      0.454040000000     0.166430000000     0.819340000000    -0.0358656  
C248     C      0.439830000000     0.181440000000     0.804570000000    -0.0355792  
C249     C      0.409420000000     0.186450000000     0.805360000000    -0.00685261 
C250     C      0.393570000000     0.176100000000     0.821270000000    -0.0355814  
C251     C      0.407770000000     0.161100000000     0.836030000000    -0.0357925  
C252     C      0.394290000000     0.202360000000     0.789640000000     0.0487976  
C253     C      0.401580000000     0.197220000000     0.770420000000    -0.0926924  
C254     C      0.386950000000     0.212170000000     0.755820000000     0.070687   
C255     C      0.358180000000     0.237390000000     0.778770000000     0.0708488  
C256     C      0.372340000000     0.222790000000     0.793700000000    -0.0923924  
C257     C      0.108280000000     0.487470000000     0.861870000000     0.0703367  
C258     C      0.122450000000     0.472890000000     0.846930000000    -0.0924206  
C259     C      0.144400000000     0.452460000000     0.850980000000     0.0481631  
C260     C      0.151670000000     0.447280000000     0.870210000000    -0.0919458  
C261     C      0.137030000000     0.462220000000     0.884800000000     0.0684826  
C262     C      0.159540000000     0.436560000000     0.835270000000    -0.00676736 
C263     C      0.143680000000     0.426210000000     0.819360000000    -0.0358953  
C264     C      0.157880000000     0.411210000000     0.804590000000    -0.0356701  
C265     C      0.188280000000     0.406190000000     0.805380000000    -0.0069771  
C266     C      0.204140000000     0.416540000000     0.821280000000    -0.0356299  
C267     C      0.189940000000     0.431540000000     0.836050000000    -0.0358399  
C268     C      0.203420000000     0.390280000000     0.789660000000     0.0487442  
C269     C      0.196130000000     0.395430000000     0.770430000000    -0.0928419  
C270     C      0.210740000000     0.380480000000     0.755840000000     0.0707976  
C271     C      0.239530000000     0.355260000000     0.778770000000     0.0707328  
C272     C      0.225370000000     0.369860000000     0.793710000000    -0.0926304  
C273     C      0.462830000000     0.459980000000     0.505750000000     0.0684367  
C274     C      0.448030000000     0.445200000000     0.520350000000    -0.0928905  
C275     C      0.454660000000     0.451030000000     0.539590000000     0.0483067  
C276     C      0.476370000000     0.471690000000     0.543660000000    -0.0925711  
C277     C      0.490770000000     0.486060000000     0.528720000000     0.0699206  
C278     C      0.438960000000     0.435690000000     0.555320000000    -0.00694751 
C279     C      0.432570000000     0.405800000000     0.553890000000    -0.0357358  
C280     C      0.417790000000     0.391410000000     0.568680000000    -0.0358734  
C281     C      0.409020000000     0.406570000000     0.585250000000    -0.006678   
C282     C      0.415400000000     0.436460000000     0.586670000000    -0.0358373  
C283     C      0.430190000000     0.450850000000     0.571890000000    -0.0357715  
C284     C      0.393320000000     0.391240000000     0.600980000000     0.0479152  
C285     C      0.371580000000     0.370590000000     0.596920000000    -0.0921742  
C286     C      0.357150000000     0.356290000000     0.611870000000     0.0697164  
C287     C      0.385140000000     0.382350000000     0.634820000000     0.0677246  
C288     C      0.399960000000     0.397070000000     0.620220000000    -0.091866   
H129     H      0.048750000000     0.483050000000     0.918030000000     0.209998   
H130     H      0.113370000000     0.046270000000     0.973960000000     0.203636   
H131     H      0.048930000000     0.109590000000     0.918030000000     0.209787   
H132     H      0.484280000000     0.046370000000     0.973940000000     0.203862   
H133     H      0.153580000000     0.016690000000     0.947300000000     0.123192   
H134     H      0.157860000000     0.078350000000     0.947200000000     0.184985   
H135     H      0.076440000000     0.145970000000     0.956300000000     0.148026   
H136     H      0.010960000000     0.150960000000     0.932770000000     0.199461   
H137     H      0.444080000000     0.075940000000     0.947250000000     0.125      
H138     H      0.439810000000     0.014290000000     0.947190000000     0.182612   
H139     H      0.021220000000     0.446670000000     0.956300000000     0.147919   
H140     H      0.086720000000     0.441670000000     0.932780000000     0.199438   
H141     H      0.015460000000     0.150890000000     0.956590000000     0.202372   
H142     H      0.444450000000     0.478260000000     0.944890000000     0.202671   
H143     H      0.082200000000     0.441740000000     0.956600000000     0.202293   
H144     H      0.153210000000     0.114380000000     0.944930000000     0.202603   
H145     H      0.298710000000     0.359590000000     0.722590000000     0.209833   
H146     H      0.363380000000     0.296400000000     0.666660000000     0.204078   
H147     H      0.298960000000     0.233050000000     0.722590000000     0.210048   
H148     H      0.234280000000     0.296240000000     0.666670000000     0.204311   
H149     H      0.403570000000     0.326010000000     0.693290000000     0.125281   
H150     H      0.407870000000     0.264360000000     0.693420000000     0.185599   
H151     H      0.326490000000     0.196680000000     0.684330000000     0.148192   
H152     H      0.261040000000     0.191650000000     0.707840000000     0.199392   
H153     H      0.194090000000     0.266630000000     0.693360000000     0.125413   
H154     H      0.189790000000     0.328290000000     0.693430000000     0.185645   
H155     H      0.271170000000     0.395960000000     0.684320000000     0.148322   
H156     H      0.336650000000     0.400980000000     0.707830000000     0.199786   
H157     H      0.265510000000     0.191730000000     0.684020000000     0.202631   
H158     H      0.194420000000     0.364310000000     0.695720000000     0.203152   
H159     H      0.332150000000     0.400910000000     0.684020000000     0.203096   
H160     H      0.403250000000     0.228330000000     0.695690000000     0.203095   
H161     H      0.090370000000     0.090650000000     0.532650000000     0.0271975  
H162     H      0.115670000000     0.115560000000     0.558340000000     0.0512483  
H163     H      0.165920000000     0.163590000000     0.516540000000     0.0509812  
H164     H      0.140670000000     0.137990000000     0.991090000000     0.0200602  
H165     H      0.119930000000     0.163590000000     0.572880000000     0.0367303  
H166     H      0.145710000000     0.188650000000     0.598690000000     0.0369762  
H167     H      0.227280000000     0.179510000000     0.567710000000     0.0367258  
H168     H      0.201500000000     0.154450000000     0.541890000000     0.0363383  
H169     H      0.181270000000     0.179480000000     0.624050000000     0.0515884  
H170     H      0.206620000000     0.204950000000     0.649510000000     0.0269005  
H171     H      0.256980000000     0.252270000000     0.607980000000     0.0273719  
H172     H      0.231600000000     0.227500000000     0.582270000000     0.0513305  
H173     H      0.204240000000     0.207440000000     0.741170000000     0.0272608  
H174     H      0.178930000000     0.181920000000     0.766620000000     0.0519205  
H175     H      0.231830000000     0.227260000000     0.808340000000     0.0516276  
H176     H      0.256430000000     0.252870000000     0.782650000000     0.0277242  
H177     H      0.188110000000     0.144730000000     0.790790000000     0.0369143  
H178     H      0.163370000000     0.118610000000     0.816590000000     0.0371262  
H179     H      0.159530000000     0.197970000000     0.849840000000     0.0372107  
H180     H      0.184270000000     0.224090000000     0.824040000000     0.0374318  
H181     H      0.115780000000     0.115470000000     0.832280000000     0.0516394  
H182     H      0.091190000000     0.089850000000     0.857970000000     0.0275045  
H183     H      0.143410000000     0.135200000000     0.899460000000     0.0245133  
H184     H      0.168720000000     0.160740000000     0.874010000000     0.0515116  
H185     H      0.090460000000     0.002100000000     0.532640000000     0.0250599  
H186     H      0.115460000000     0.476930000000     0.558360000000     0.0516881  
H187     H      0.166890000000     0.430040000000     0.516600000000     0.0518443  
H188     H      0.141200000000     0.455150000000     0.991140000000     0.0244998  
H189     H      0.163610000000     0.474360000000     0.573370000000     0.03706    
H190     H      0.189390000000     0.449230000000     0.599160000000     0.0371365  
H191     H      0.184360000000     0.368650000000     0.567280000000     0.037054   
H192     H      0.158590000000     0.393770000000     0.541500000000     0.0370957  
H193     H      0.181130000000     0.412970000000     0.624070000000     0.0510747  
H194     H      0.206760000000     0.387770000000     0.649520000000     0.0226771  
H195     H      0.257430000000     0.340790000000     0.607990000000     0.0275083  
H196     H      0.232500000000     0.366050000000     0.582290000000     0.051792   
H197     H      0.340380000000     0.251990000000     0.607980000000     0.0273591  
H198     H      0.365670000000     0.227070000000     0.582270000000     0.0513636  
H199     H      0.415950000000     0.179060000000     0.624090000000     0.0508605  
H200     H      0.390710000000     0.204670000000     0.649530000000     0.0225821  
H201     H      0.369920000000     0.179030000000     0.567760000000     0.0367564  
H202     H      0.395690000000     0.153960000000     0.541940000000     0.0369422  
H203     H      0.477280000000     0.163120000000     0.572900000000     0.0367404  
H204     H      0.451510000000     0.188190000000     0.598710000000     0.036486   
H205     H      0.431230000000     0.163120000000     0.516570000000     0.0516448  
H206     H      0.456580000000     0.137650000000     0.991120000000     0.0244128  
H207     H      0.006970000000     0.090350000000     0.532630000000     0.0268947  
H208     H      0.481590000000     0.115130000000     0.558340000000     0.0512212  
H209     H      0.341430000000     0.339580000000     0.782640000000     0.0277788  
H210     H      0.366400000000     0.364790000000     0.808350000000     0.0518036  
H211     H      0.418240000000     0.411250000000     0.766600000000     0.0519754  
H212     H      0.393290000000     0.385370000000     0.741160000000     0.0272548  
H213     H      0.370160000000     0.413360000000     0.822170000000     0.0369368  
H214     H      0.394970000000     0.439500000000     0.847930000000     0.0370742  
H215     H      0.477650000000     0.429190000000     0.818410000000     0.0370581  
H216     H      0.452850000000     0.403060000000     0.792650000000     0.0375823  
H217     H      0.429550000000     0.431340000000     0.873980000000     0.0517006  
H218     H      0.454450000000     0.457260000000     0.899430000000     0.0245936  
H219     H      0.006370000000     0.002980000000     0.857950000000     0.0248814  
H220     H      0.481440000000     0.477750000000     0.832230000000     0.0518744  
H221     H      0.006260000000     0.089560000000     0.857970000000     0.0273302  
H222     H      0.481300000000     0.114770000000     0.832250000000     0.0518168  
H223     H      0.429440000000     0.161230000000     0.873990000000     0.0519208  
H224     H      0.454370000000     0.135340000000     0.899430000000     0.0270613  
H225     H      0.477550000000     0.163340000000     0.818430000000     0.0372202  
H226     H      0.452760000000     0.189510000000     0.792670000000     0.0372175  
H227     H      0.370060000000     0.179190000000     0.822170000000     0.0372414  
H228     H      0.394840000000     0.153040000000     0.847930000000     0.037563   
H229     H      0.418180000000     0.181360000000     0.766610000000     0.0516769  
H230     H      0.393270000000     0.207300000000     0.741180000000     0.0246707  
H231     H      0.341350000000     0.253000000000     0.782660000000     0.0277462  
H232     H      0.366290000000     0.227760000000     0.808370000000     0.0519726  
H233     H      0.091470000000     0.003090000000     0.857980000000     0.0251799  
H234     H      0.116420000000     0.477880000000     0.832270000000     0.0516881  
H235     H      0.168270000000     0.431420000000     0.874010000000     0.0518572  
H236     H      0.143330000000     0.457310000000     0.899460000000     0.0271051  
H237     H      0.120160000000     0.429300000000     0.818450000000     0.0368589  
H238     H      0.144950000000     0.403140000000     0.792680000000     0.0369934  
H239     H      0.227660000000     0.413450000000     0.822190000000     0.036954   
H240     H      0.202870000000     0.439610000000     0.847960000000     0.0374414  
H241     H      0.179520000000     0.411280000000     0.766630000000     0.0516869  
H242     H      0.204420000000     0.385360000000     0.741190000000     0.0246754  
H243     H      0.256350000000     0.339640000000     0.782670000000     0.0275971  
H244     H      0.231420000000     0.364890000000     0.808370000000     0.0517306  
H245     H      0.456790000000     0.454830000000     0.991090000000     0.0201595  
H246     H      0.431160000000     0.429630000000     0.516550000000     0.0511616  
H247     H      0.482500000000     0.476580000000     0.558320000000     0.0518207  
H248     H      0.007430000000     0.001840000000     0.532630000000     0.024697   
H249     H      0.439420000000     0.393380000000     0.541460000000     0.0370953  
H250     H      0.413620000000     0.368280000000     0.567250000000     0.0371205  
H251     H      0.408560000000     0.448870000000     0.599100000000     0.0371578  
H252     H      0.434350000000     0.473980000000     0.573310000000     0.0370596  
H253     H      0.365450000000     0.365700000000     0.582250000000     0.0516452  
H254     H      0.340460000000     0.340540000000     0.607980000000     0.027566   
H255     H      0.391170000000     0.387530000000     0.649480000000     0.0270441  
H256     H      0.416860000000     0.412630000000     0.624010000000     0.0518732  
N17      N      0.113600000000     0.112290000000     0.509870000000    -0.189781   
N18      N      0.233740000000     0.230620000000     0.630750000000    -0.189451   
N19      N      0.232330000000     0.232100000000     0.759910000000    -0.188936   
N20      N      0.115300000000     0.110590000000     0.880710000000    -0.189091   
N21      N      0.113900000000     0.480630000000     0.509890000000    -0.189224   
N22      N      0.234020000000     0.362250000000     0.630750000000    -0.189803   
N23      N      0.363620000000     0.230360000000     0.630750000000    -0.189846   
N24      N      0.483710000000     0.111990000000     0.509870000000    -0.189266   
N25      N      0.365360000000     0.360530000000     0.759890000000    -0.189078   
N26      N      0.482410000000     0.482060000000     0.880690000000    -0.189134   
N27      N      0.482310000000     0.110500000000     0.880710000000    -0.189206   
N28      N      0.365310000000     0.232090000000     0.759920000000    -0.188973   
N29      N      0.115390000000     0.482140000000     0.880720000000    -0.189132   
N30      N      0.232390000000     0.360560000000     0.759920000000    -0.189077   
N31      N      0.484030000000     0.480360000000     0.509860000000    -0.18973    
N32      N      0.363890000000     0.362020000000     0.630730000000    -0.189247   
O65      O      0.491070000000     0.488920000000     0.977730000000    -0.364694   
O66      O      0.017770000000     0.014170000000     0.999910000000    -0.357303   
O67      O      0.108270000000     0.490580000000     0.912860000000    -0.359313   
O68      O      0.080520000000     0.014760000000     0.890710000000    -0.355851   
O69      O      0.106830000000     0.489120000000     0.977750000000    -0.361347   
O70      O      0.079960000000     0.014230000000     0.999910000000    -0.356605   
O71      O      0.489530000000     0.490510000000     0.912820000000    -0.354701   
O72      O      0.017210000000     0.014770000000     0.890680000000    -0.356055   
O73      O      0.010790000000     0.451690000000     0.944290000000    -0.34069    
O74      O      0.452630000000     0.497630000000     0.945880000000    -0.513174   
O75      O      0.085930000000     0.452150000000     0.944790000000    -0.513461   
O76      O      0.145360000000     0.496860000000     0.945780000000    -0.327713   
O77      O      0.048750000000     0.499730000000     0.964420000000    -0.469271   
O78      O      0.048760000000     0.499900000000     0.926330000000    -0.61085    
O79      O      0.489420000000     0.102060000000     0.912840000000    -0.359371   
O80      O      0.017190000000     0.077890000000     0.890700000000    -0.353953   
O81      O      0.106580000000     0.103720000000     0.977740000000    -0.364781   
O82      O      0.079870000000     0.078480000000     0.999920000000    -0.354839   
O83      O      0.108160000000     0.102120000000     0.912840000000    -0.354885   
O84      O      0.080500000000     0.077870000000     0.890690000000    -0.35345    
O85      O      0.490800000000     0.103510000000     0.977730000000    -0.361221   
O86      O      0.017670000000     0.078410000000     0.999910000000    -0.354605   
O87      O      0.011740000000     0.140480000000     0.944780000000    -0.513666   
O88      O      0.452320000000     0.095780000000     0.945760000000    -0.327772   
O89      O      0.086890000000     0.140950000000     0.944300000000    -0.3407     
O90      O      0.145040000000     0.095010000000     0.945910000000    -0.513174   
O91      O      0.048920000000     0.092740000000     0.926340000000    -0.610735   
O92      O      0.048910000000     0.092910000000     0.964420000000    -0.469178   
O93      O      0.000990000000     0.046410000000     0.924730000000    -0.4754     
O94      O      0.096420000000     0.046250000000     0.965640000000    -0.62403    
O95      O      0.001230000000     0.046390000000     0.965630000000    -0.624321   
O96      O      0.096690000000     0.046230000000     0.924750000000    -0.475276   
O97      O      0.241040000000     0.353690000000     0.662880000000    -0.364735   
O98      O      0.267760000000     0.328450000000     0.640700000000    -0.354291   
O99      O      0.358240000000     0.352080000000     0.727760000000    -0.359246   
O100     O      0.330490000000     0.327900000000     0.749910000000    -0.353615   
O101     O      0.356810000000     0.353540000000     0.662870000000    -0.361355   
O102     O      0.329960000000     0.328420000000     0.640700000000    -0.35397    
O103     O      0.239500000000     0.352100000000     0.727790000000    -0.354649   
O104     O      0.267190000000     0.327850000000     0.749940000000    -0.35343    
O105     O      0.260730000000     0.390930000000     0.696320000000    -0.340593   
O106     O      0.202600000000     0.344950000000     0.694730000000    -0.51342    
O107     O      0.335870000000     0.390500000000     0.695820000000    -0.514041   
O108     O      0.395320000000     0.345840000000     0.694840000000    -0.327222   
O109     O      0.298730000000     0.342910000000     0.676190000000    -0.469199   
O110     O      0.298740000000     0.342740000000     0.714280000000    -0.610799   
O111     O      0.239440000000     0.240550000000     0.727770000000    -0.35907    
O112     O      0.267200000000     0.264730000000     0.749920000000    -0.353562   
O113     O      0.356600000000     0.238940000000     0.662870000000    -0.365069   
O114     O      0.329880000000     0.264170000000     0.640700000000    -0.354599   
O115     O      0.358180000000     0.240540000000     0.727780000000    -0.354396   
O116     O      0.330500000000     0.264790000000     0.749940000000    -0.353324   
O117     O      0.240830000000     0.239090000000     0.662870000000    -0.361596   
O118     O      0.267680000000     0.264210000000     0.640710000000    -0.354182   
O119     O      0.261800000000     0.202140000000     0.695830000000    -0.513517   
O120     O      0.202340000000     0.246800000000     0.694860000000    -0.327389   
O121     O      0.336940000000     0.201710000000     0.696330000000    -0.340561   
O122     O      0.395070000000     0.247690000000     0.694710000000    -0.513462   
O123     O      0.298940000000     0.249900000000     0.714290000000    -0.610837   
O124     O      0.298940000000     0.249720000000     0.676200000000    -0.469418   
O125     O      0.250990000000     0.296200000000     0.715880000000    -0.475193   
O126     O      0.346420000000     0.296410000000     0.674980000000    -0.624258   
O127     O      0.251230000000     0.296230000000     0.674990000000    -0.624406   
O128     O      0.346690000000     0.296430000000     0.715870000000    -0.475201   
Zr13     Zr     0.005020000000     0.004440000000     0.945270000000     1.28695    
Zr14     Zr     0.092510000000     0.004280000000     0.945300000000     1.28799    
Zr15     Zr     0.005170000000     0.088360000000     0.945280000000     1.29368    
Zr16     Zr     0.092650000000     0.088200000000     0.945280000000     1.29389    
Zr17     Zr     0.048830000000     0.046320000000     0.981250000000     1.2704     
Zr18     Zr     0.048840000000     0.046320000000     0.909370000000     1.26768    
Zr19     Zr     0.255000000000     0.338180000000     0.695340000000     1.29387    
Zr20     Zr     0.342480000000     0.338380000000     0.695320000000     1.29445    
Zr21     Zr     0.255190000000     0.254260000000     0.695320000000     1.2941     
Zr22     Zr     0.342670000000     0.254460000000     0.695330000000     1.29394    
Zr23     Zr     0.298830000000     0.296310000000     0.659360000000     1.27172    
Zr24     Zr     0.298840000000     0.296320000000     0.731250000000     1.26849    
C289     C      0.498200000000     0.994950000000     0.495320000000     0.384938   
C290     C      0.100910000000     0.996390000000     0.395270000000     0.385767   
C291     C      0.099660000000     0.995120000000     0.495340000000     0.383715   
C292     C      0.496860000000     0.996350000000     0.395240000000     0.387174   
C293     C      0.496780000000     0.596250000000     0.395260000000     0.383292   
C294     C      0.099440000000     0.597690000000     0.495330000000     0.382117   
C295     C      0.100850000000     0.596300000000     0.395260000000     0.384433   
C296     C      0.497970000000     0.597500000000     0.495320000000     0.381306   
C297     C      0.248180000000     0.847670000000     0.145290000000     0.382289   
C298     C      0.350890000000     0.846270000000     0.245340000000     0.383223   
C299     C      0.349640000000     0.847530000000     0.145280000000     0.381306   
C300     C      0.246830000000     0.846270000000     0.245370000000     0.384137   
C301     C      0.246800000000     0.746360000000     0.245350000000     0.383045   
C302     C      0.349460000000     0.744960000000     0.145290000000     0.382475   
C303     C      0.350850000000     0.746380000000     0.245360000000     0.384194   
C304     C      0.247990000000     0.745110000000     0.145290000000     0.381774   
C305     C      0.106890000000     0.606570000000     0.028730000000     0.07017    
C306     C      0.121260000000     0.620980000000     0.043670000000    -0.0928249  
C307     C      0.142950000000     0.641660000000     0.039590000000     0.0487852  
C308     C      0.149580000000     0.647470000000     0.020350000000    -0.0940765  
C309     C      0.134760000000     0.632710000000     0.005750000000     0.0719718  
C310     C      0.158650000000     0.657020000000     0.055320000000    -0.00723865 
C311     C      0.143410000000     0.666710000000     0.071650000000    -0.0356609  
C312     C      0.158180000000     0.681070000000     0.086450000000    -0.0360337  
C313     C      0.188560000000     0.686080000000     0.085280000000    -0.00681218 
C314     C      0.203800000000     0.676400000000     0.068930000000    -0.0360156  
C315     C      0.189020000000     0.662040000000     0.054140000000    -0.0356667  
C316     C      0.204270000000     0.701400000000     0.101010000000     0.047882   
C317     C      0.197640000000     0.695580000000     0.120240000000    -0.091991   
C318     C      0.212510000000     0.710260000000     0.134840000000     0.067649   
C319     C      0.240430000000     0.736380000000     0.111880000000     0.0695294  
C320     C      0.226000000000     0.722050000000     0.096940000000    -0.0923348  
C321     C      0.210660000000     0.712200000000     0.255810000000     0.0683225  
C322     C      0.196050000000     0.697240000000     0.270410000000    -0.0917656  
C323     C      0.203310000000     0.702410000000     0.289630000000     0.0481752  
C324     C      0.225260000000     0.722830000000     0.293690000000    -0.0921164  
C325     C      0.239470000000     0.737390000000     0.278760000000     0.0702207  
C326     C      0.188160000000     0.686510000000     0.305350000000    -0.00665488 
C327     C      0.181750000000     0.656660000000     0.303530000000    -0.035848   
C328     C      0.167580000000     0.641690000000     0.318330000000    -0.0357163  
C329     C      0.159480000000     0.656200000000     0.335280000000    -0.0068659  
C330     C      0.165890000000     0.686040000000     0.337090000000    -0.0357133  
C331     C      0.180060000000     0.701010000000     0.322300000000    -0.0357409  
C332     C      0.144320000000     0.640290000000     0.351000000000     0.0487342  
C333     C      0.122350000000     0.619890000000     0.346920000000    -0.0924961  
C334     C      0.108150000000     0.605310000000     0.361860000000     0.0707411  
C335     C      0.136970000000     0.630470000000     0.384810000000     0.0707686  
C336     C      0.151580000000     0.645440000000     0.370220000000    -0.0927426  
C337     C      0.107160000000     0.986350000000     0.028740000000     0.0737192  
C338     C      0.121590000000     0.972050000000     0.043700000000    -0.0937751  
C339     C      0.143330000000     0.951400000000     0.039640000000     0.0493297  
C340     C      0.149990000000     0.945590000000     0.020400000000    -0.0933302  
C341     C      0.135160000000     0.960310000000     0.005790000000     0.0717829  
C342     C      0.159030000000     0.936070000000     0.055370000000    -0.00694839 
C343     C      0.167780000000     0.951220000000     0.071940000000    -0.035559   
C344     C      0.182570000000     0.936830000000     0.086720000000    -0.0356459  
C345     C      0.188960000000     0.906930000000     0.085290000000    -0.00683344 
C346     C      0.180200000000     0.891780000000     0.068720000000    -0.0357473  
C347     C      0.165420000000     0.906180000000     0.053930000000    -0.0355386  
C348     C      0.204650000000     0.891600000000     0.101020000000     0.0483483  
C349     C      0.198010000000     0.897400000000     0.120260000000    -0.0928023  
C350     C      0.212810000000     0.882620000000     0.134860000000     0.0685018  
C351     C      0.240770000000     0.856570000000     0.111890000000     0.0699961  
C352     C      0.226360000000     0.870930000000     0.096950000000    -0.0925068  
C353     C      0.356900000000     0.736060000000     0.111880000000     0.0696734  
C354     C      0.371270000000     0.721650000000     0.096950000000    -0.0926269  
C355     C      0.392970000000     0.700980000000     0.101030000000     0.0481746  
C356     C      0.399600000000     0.695180000000     0.120270000000    -0.09289    
C357     C      0.384790000000     0.709950000000     0.134870000000     0.0683688  
C358     C      0.408650000000     0.685610000000     0.085310000000    -0.0070252  
C359     C      0.393400000000     0.675910000000     0.068980000000    -0.0357665  
C360     C      0.408170000000     0.661540000000     0.054180000000    -0.0358533  
C361     C      0.438550000000     0.656530000000     0.055340000000    -0.00700429 
C362     C      0.453800000000     0.666230000000     0.071680000000    -0.0358511  
C363     C      0.439030000000     0.680600000000     0.086480000000    -0.0359605  
C364     C      0.454250000000     0.641210000000     0.039610000000     0.0485426  
C365     C      0.447610000000     0.647030000000     0.020380000000    -0.0930746  
C366     C      0.462480000000     0.632330000000     0.005770000000     0.0712503  
C367     C      0.490410000000     0.606240000000     0.028730000000     0.070035   
C368     C      0.475990000000     0.620570000000     0.043680000000    -0.0926389  
C369     C      0.358250000000     0.855200000000     0.278750000000     0.070333   
C370     C      0.372440000000     0.869770000000     0.293680000000    -0.0921555  
C371     C      0.394380000000     0.890210000000     0.289630000000     0.0482693  
C372     C      0.401640000000     0.895380000000     0.270410000000    -0.0917302  
C373     C      0.387000000000     0.880450000000     0.255810000000     0.0685757  
C374     C      0.409520000000     0.906100000000     0.305350000000    -0.00654316 
C375     C      0.393670000000     0.916440000000     0.321260000000    -0.0358033  
C376     C      0.407890000000     0.931440000000     0.336030000000    -0.0354334  
C377     C      0.438290000000     0.936450000000     0.335240000000    -0.00703057 
C378     C      0.454140000000     0.926100000000     0.319320000000    -0.0353901  
C379     C      0.439920000000     0.911120000000     0.304560000000    -0.0356454  
C380     C      0.453430000000     0.952350000000     0.350960000000     0.0496506  
C381     C      0.446160000000     0.947200000000     0.370170000000    -0.0931698  
C382     C      0.460770000000     0.962140000000     0.384770000000     0.0713507  
C383     C      0.489550000000     0.987360000000     0.361840000000     0.0744059  
C384     C      0.475390000000     0.972770000000     0.346900000000    -0.093815   
C385     C      0.489440000000     0.605180000000     0.361850000000     0.0703563  
C386     C      0.475260000000     0.619760000000     0.346910000000    -0.0922082  
C387     C      0.453320000000     0.640190000000     0.350970000000     0.0483752  
C388     C      0.446040000000     0.645360000000     0.370180000000    -0.0918182  
C389     C      0.460670000000     0.630430000000     0.384790000000     0.0684928  
C390     C      0.438180000000     0.656090000000     0.335250000000    -0.00658188 
C391     C      0.454040000000     0.666430000000     0.319340000000    -0.0358157  
C392     C      0.439830000000     0.681440000000     0.304570000000    -0.0355393  
C393     C      0.409420000000     0.686450000000     0.305360000000    -0.00681931 
C394     C      0.393570000000     0.676100000000     0.321270000000    -0.0355197  
C395     C      0.407770000000     0.661100000000     0.336030000000    -0.0357017  
C396     C      0.394290000000     0.702370000000     0.289640000000     0.0488639  
C397     C      0.401580000000     0.697220000000     0.270420000000    -0.092687   
C398     C      0.386950000000     0.712170000000     0.255820000000     0.0707101  
C399     C      0.358180000000     0.737390000000     0.278760000000     0.0709614  
C400     C      0.372340000000     0.722790000000     0.293700000000    -0.0924388  
C401     C      0.108280000000     0.987470000000     0.361870000000     0.0738881  
C402     C      0.122450000000     0.972890000000     0.346930000000    -0.0935078  
C403     C      0.144400000000     0.952460000000     0.350980000000     0.0488212  
C404     C      0.151670000000     0.947280000000     0.370210000000    -0.0921326  
C405     C      0.137030000000     0.962220000000     0.384810000000     0.068895   
C406     C      0.159540000000     0.936560000000     0.335270000000    -0.00686525 
C407     C      0.143680000000     0.926210000000     0.319360000000    -0.0357309  
C408     C      0.157880000000     0.911210000000     0.304590000000    -0.0356564  
C409     C      0.188280000000     0.906190000000     0.305380000000    -0.00686473 
C410     C      0.204140000000     0.916540000000     0.321280000000    -0.0355933  
C411     C      0.189940000000     0.931540000000     0.336050000000    -0.0356455  
C412     C      0.203420000000     0.890280000000     0.289650000000     0.0487572  
C413     C      0.196130000000     0.895430000000     0.270430000000    -0.0927074  
C414     C      0.210740000000     0.880480000000     0.255830000000     0.0706764  
C415     C      0.239530000000     0.855260000000     0.278770000000     0.0708014  
C416     C      0.225370000000     0.869860000000     0.293710000000    -0.0925243  
C417     C      0.462830000000     0.959980000000     0.005750000000     0.0725554  
C418     C      0.448030000000     0.945210000000     0.020350000000    -0.0943224  
C419     C      0.454660000000     0.951020000000     0.039590000000     0.0496386  
C420     C      0.476370000000     0.971690000000     0.043660000000    -0.0938875  
C421     C      0.490770000000     0.986060000000     0.028720000000     0.0738311  
C422     C      0.438960000000     0.935690000000     0.055320000000    -0.00723214 
C423     C      0.432570000000     0.905800000000     0.053890000000    -0.0353533  
C424     C      0.417790000000     0.891410000000     0.068670000000    -0.0358843  
C425     C      0.409020000000     0.906570000000     0.085250000000    -0.00652792 
C426     C      0.415400000000     0.936460000000     0.086670000000    -0.0357936  
C427     C      0.430190000000     0.950850000000     0.071890000000    -0.0354187  
C428     C      0.393320000000     0.891250000000     0.100980000000     0.0479359  
C429     C      0.371580000000     0.870600000000     0.096920000000    -0.0920562  
C430     C      0.357150000000     0.856290000000     0.111870000000     0.0697254  
C431     C      0.385140000000     0.882350000000     0.134830000000     0.0676765  
C432     C      0.399960000000     0.897070000000     0.120220000000    -0.0917142  
H257     H      0.048750000000     0.983050000000     0.418030000000     0.20995    
H258     H      0.113370000000     0.546270000000     0.473960000000     0.204286   
H259     H      0.048930000000     0.609590000000     0.418030000000     0.209806   
H260     H      0.484280000000     0.546370000000     0.473940000000     0.204531   
H261     H      0.153580000000     0.516690000000     0.447310000000     0.125499   
H262     H      0.157860000000     0.578350000000     0.447210000000     0.18544    
H263     H      0.076440000000     0.645970000000     0.456300000000     0.148275   
H264     H      0.010960000000     0.650970000000     0.432780000000     0.19982    
H265     H      0.444080000000     0.575950000000     0.447250000000     0.125505   
H266     H      0.439810000000     0.514280000000     0.447180000000     0.185599   
H267     H      0.021220000000     0.946670000000     0.456300000000     0.148226   
H268     H      0.086720000000     0.941680000000     0.432780000000     0.199598   
H269     H      0.015460000000     0.650890000000     0.456590000000     0.202759   
H270     H      0.444450000000     0.978260000000     0.444890000000     0.202415   
H271     H      0.082200000000     0.941740000000     0.456590000000     0.202819   
H272     H      0.153210000000     0.614380000000     0.444930000000     0.20297    
H273     H      0.298710000000     0.859590000000     0.222590000000     0.209872   
H274     H      0.363380000000     0.796400000000     0.166660000000     0.204088   
H275     H      0.298960000000     0.733050000000     0.222590000000     0.21005    
H276     H      0.234280000000     0.796240000000     0.166670000000     0.204321   
H277     H      0.403570000000     0.826010000000     0.193290000000     0.12528    
H278     H      0.407870000000     0.764360000000     0.193420000000     0.185611   
H279     H      0.326490000000     0.696680000000     0.184320000000     0.148036   
H280     H      0.261040000000     0.691660000000     0.207840000000     0.19982    
H281     H      0.194090000000     0.766630000000     0.193360000000     0.125434   
H282     H      0.189790000000     0.828290000000     0.193430000000     0.185594   
H283     H      0.271170000000     0.895960000000     0.184320000000     0.148411   
H284     H      0.336650000000     0.900980000000     0.207840000000     0.199652   
H285     H      0.265510000000     0.691730000000     0.184020000000     0.202984   
H286     H      0.194420000000     0.864320000000     0.195720000000     0.202992   
H287     H      0.332150000000     0.900900000000     0.184020000000     0.203285   
H288     H      0.403250000000     0.728330000000     0.195690000000     0.203147   
H289     H      0.090370000000     0.590650000000     0.032650000000     0.02782    
H290     H      0.115670000000     0.615550000000     0.058350000000     0.0515109  
H291     H      0.165920000000     0.663590000000     0.016540000000     0.0518757  
H292     H      0.140670000000     0.637990000000     0.491100000000     0.0226295  
H293     H      0.119930000000     0.663580000000     0.072870000000     0.0368567  
H294     H      0.145710000000     0.688650000000     0.098700000000     0.03702    
H295     H      0.227280000000     0.679510000000     0.067710000000     0.0369351  
H296     H      0.201500000000     0.654450000000     0.041890000000     0.0366915  
H297     H      0.181270000000     0.679480000000     0.124050000000     0.0516819  
H298     H      0.206620000000     0.704950000000     0.149510000000     0.0269635  
H299     H      0.256980000000     0.752270000000     0.107980000000     0.0274589  
H300     H      0.231600000000     0.727500000000     0.082270000000     0.051448   
H301     H      0.204240000000     0.707440000000     0.241170000000     0.0272877  
H302     H      0.178930000000     0.681920000000     0.266620000000     0.0520081  
H303     H      0.231830000000     0.727270000000     0.308340000000     0.0516613  
H304     H      0.256430000000     0.752870000000     0.282640000000     0.0277812  
H305     H      0.188110000000     0.644730000000     0.290790000000     0.037069   
H306     H      0.163370000000     0.618620000000     0.316590000000     0.0373944  
H307     H      0.159530000000     0.697970000000     0.349840000000     0.037276   
H308     H      0.184270000000     0.724090000000     0.324040000000     0.0374603  
H309     H      0.115780000000     0.615470000000     0.332280000000     0.0518483  
H310     H      0.091190000000     0.589850000000     0.357960000000     0.027627   
H311     H      0.143410000000     0.635200000000     0.399460000000     0.0246618  
H312     H      0.168720000000     0.660750000000     0.374010000000     0.0516331  
H313     H      0.090460000000     0.502100000000     0.032640000000     0.0280157  
H314     H      0.115460000000     0.976930000000     0.058360000000     0.0526411  
H315     H      0.166890000000     0.930040000000     0.016600000000     0.052912   
H316     H      0.141200000000     0.955150000000     0.491140000000     0.0270877  
H317     H      0.163610000000     0.974350000000     0.073370000000     0.0374888  
H318     H      0.189390000000     0.949230000000     0.099170000000     0.037352   
H319     H      0.184360000000     0.868650000000     0.067280000000     0.0372018  
H320     H      0.158590000000     0.893770000000     0.041490000000     0.0373263  
H321     H      0.181130000000     0.912970000000     0.124060000000     0.0512505  
H322     H      0.206760000000     0.887770000000     0.149520000000     0.022758   
H323     H      0.257430000000     0.840790000000     0.107990000000     0.0275616  
H324     H      0.232500000000     0.866050000000     0.082290000000     0.0519744  
H325     H      0.340380000000     0.751990000000     0.107980000000     0.0274465  
H326     H      0.365670000000     0.727070000000     0.082280000000     0.0515653  
H327     H      0.415950000000     0.679070000000     0.124090000000     0.0510284  
H328     H      0.390710000000     0.704670000000     0.149530000000     0.0226361  
H329     H      0.369920000000     0.679030000000     0.067760000000     0.0369852  
H330     H      0.395690000000     0.653950000000     0.041940000000     0.0372364  
H331     H      0.477280000000     0.663120000000     0.072900000000     0.0368394  
H332     H      0.451510000000     0.688190000000     0.098710000000     0.0365854  
H333     H      0.431230000000     0.663120000000     0.016570000000     0.0525494  
H334     H      0.456580000000     0.637650000000     0.491120000000     0.0269773  
H335     H      0.006970000000     0.590350000000     0.032630000000     0.0275721  
H336     H      0.481590000000     0.615130000000     0.058350000000     0.0515115  
H337     H      0.341430000000     0.839570000000     0.282640000000     0.0277901  
H338     H      0.366400000000     0.864790000000     0.308350000000     0.0518113  
H339     H      0.418240000000     0.911250000000     0.266600000000     0.0521448  
H340     H      0.393290000000     0.885360000000     0.241160000000     0.0273312  
H341     H      0.370160000000     0.913360000000     0.322170000000     0.0371     
H342     H      0.394970000000     0.939500000000     0.347930000000     0.0372978  
H343     H      0.477650000000     0.929200000000     0.318410000000     0.0371518  
H344     H      0.452850000000     0.903060000000     0.292640000000     0.0376293  
H345     H      0.429550000000     0.931340000000     0.373980000000     0.051933   
H346     H      0.454450000000     0.957260000000     0.399420000000     0.0247503  
H347     H      0.006370000000     0.502990000000     0.357950000000     0.0273438  
H348     H      0.481440000000     0.977750000000     0.332240000000     0.0527791  
H349     H      0.006260000000     0.589560000000     0.357960000000     0.02748    
H350     H      0.481300000000     0.614770000000     0.332250000000     0.0519968  
H351     H      0.429440000000     0.661220000000     0.373990000000     0.0520638  
H352     H      0.454370000000     0.635330000000     0.399430000000     0.027226   
H353     H      0.477550000000     0.663340000000     0.318430000000     0.037268   
H354     H      0.452760000000     0.689510000000     0.292670000000     0.037253   
H355     H      0.370060000000     0.679190000000     0.322170000000     0.0373536  
H356     H      0.394840000000     0.653030000000     0.347930000000     0.0377336  
H357     H      0.418180000000     0.681360000000     0.266610000000     0.0517826  
H358     H      0.393270000000     0.707290000000     0.241180000000     0.0247233  
H359     H      0.341350000000     0.753000000000     0.282660000000     0.0277364  
H360     H      0.366290000000     0.727760000000     0.308370000000     0.0520294  
H361     H      0.091470000000     0.503090000000     0.357970000000     0.0276362  
H362     H      0.116420000000     0.977880000000     0.332260000000     0.0524447  
H363     H      0.168270000000     0.931420000000     0.374010000000     0.0521042  
H364     H      0.143330000000     0.957310000000     0.399460000000     0.0272538  
H365     H      0.120160000000     0.929300000000     0.318450000000     0.0369564  
H366     H      0.144950000000     0.903140000000     0.292680000000     0.0370751  
H367     H      0.227660000000     0.913450000000     0.322180000000     0.0371222  
H368     H      0.202870000000     0.939610000000     0.347960000000     0.0376679  
H369     H      0.179520000000     0.911280000000     0.266630000000     0.051816   
H370     H      0.204420000000     0.885360000000     0.241190000000     0.0247757  
H371     H      0.256350000000     0.839650000000     0.282660000000     0.0276021  
H372     H      0.231420000000     0.864890000000     0.308380000000     0.0517196  
H373     H      0.456790000000     0.954830000000     0.491100000000     0.0227251  
H374     H      0.431160000000     0.929630000000     0.016550000000     0.0521919  
H375     H      0.482500000000     0.976580000000     0.058330000000     0.0526888  
H376     H      0.007430000000     0.501840000000     0.032630000000     0.0276572  
H377     H      0.439420000000     0.893380000000     0.041450000000     0.0372679  
H378     H      0.413620000000     0.868280000000     0.067250000000     0.0372937  
H379     H      0.408560000000     0.948870000000     0.099100000000     0.0374556  
H380     H      0.434350000000     0.973980000000     0.073310000000     0.0374404  
H381     H      0.365450000000     0.865700000000     0.082250000000     0.051783   
H382     H      0.340460000000     0.840540000000     0.107980000000     0.0276381  
H383     H      0.391170000000     0.887530000000     0.149480000000     0.0271389  
H384     H      0.416860000000     0.912630000000     0.124010000000     0.0519931  
N33      N      0.113600000000     0.612290000000     0.009870000000    -0.188934   
N34      N      0.233740000000     0.730620000000     0.130750000000    -0.189375   
N35      N      0.232330000000     0.732100000000     0.259900000000    -0.189032   
N36      N      0.115300000000     0.610590000000     0.380710000000    -0.189085   
N37      N      0.113900000000     0.980630000000     0.009880000000    -0.189325   
N38      N      0.234020000000     0.862250000000     0.130750000000    -0.189812   
N39      N      0.363620000000     0.730350000000     0.130750000000    -0.189716   
N40      N      0.483710000000     0.611990000000     0.009870000000    -0.18833    
N41      N      0.365360000000     0.860530000000     0.259890000000    -0.189112   
N42      N      0.482410000000     0.982060000000     0.380690000000    -0.189855   
N43      N      0.482310000000     0.610500000000     0.380710000000    -0.189131   
N44      N      0.365310000000     0.732090000000     0.259920000000    -0.188921   
N45      N      0.115390000000     0.982140000000     0.380720000000    -0.18991    
N46      N      0.232390000000     0.860560000000     0.259930000000    -0.188964   
N47      N      0.484030000000     0.980360000000     0.009860000000    -0.18971    
N48      N      0.363890000000     0.862020000000     0.130730000000    -0.189193   
O129     O      0.491070000000     0.988920000000     0.477730000000    -0.364051   
O130     O      0.017770000000     0.514170000000     0.499920000000    -0.35454    
O131     O      0.108270000000     0.990580000000     0.412860000000    -0.358488   
O132     O      0.080520000000     0.514750000000     0.390710000000    -0.353733   
O133     O      0.106830000000     0.989110000000     0.477750000000    -0.360499   
O134     O      0.079960000000     0.514230000000     0.499920000000    -0.353791   
O135     O      0.489530000000     0.990510000000     0.412820000000    -0.353971   
O136     O      0.017210000000     0.514770000000     0.390670000000    -0.353725   
O137     O      0.010790000000     0.951690000000     0.444290000000    -0.33971    
O138     O      0.452630000000     0.997630000000     0.445880000000    -0.509191   
O139     O      0.085930000000     0.952160000000     0.444790000000    -0.512874   
O140     O      0.145360000000     0.996860000000     0.445780000000    -0.324318   
O141     O      0.048750000000     0.999730000000     0.464420000000    -0.466574   
O142     O      0.048760000000     0.999900000000     0.426330000000    -0.608249   
O143     O      0.489420000000     0.602060000000     0.412840000000    -0.359302   
O144     O      0.017190000000     0.577890000000     0.390700000000    -0.353954   
O145     O      0.106580000000     0.603720000000     0.477740000000    -0.36477    
O146     O      0.079870000000     0.578470000000     0.499930000000    -0.354293   
O147     O      0.108160000000     0.602120000000     0.412840000000    -0.354827   
O148     O      0.080500000000     0.577870000000     0.390690000000    -0.353367   
O149     O      0.490800000000     0.603520000000     0.477740000000    -0.361328   
O150     O      0.017670000000     0.578400000000     0.499900000000    -0.35432    
O151     O      0.011740000000     0.640480000000     0.444780000000    -0.513948   
O152     O      0.452320000000     0.595780000000     0.445760000000    -0.327596   
O153     O      0.086890000000     0.640950000000     0.444300000000    -0.340584   
O154     O      0.145040000000     0.595010000000     0.445910000000    -0.513152   
O155     O      0.048920000000     0.592740000000     0.426340000000    -0.610881   
O156     O      0.048910000000     0.592910000000     0.464420000000    -0.46929    
O157     O      0.000990000000     0.546410000000     0.424730000000    -0.475408   
O158     O      0.096420000000     0.546250000000     0.465640000000    -0.624394   
O159     O      0.001230000000     0.546390000000     0.465630000000    -0.624755   
O160     O      0.096690000000     0.546230000000     0.424750000000    -0.475326   
O161     O      0.241040000000     0.853690000000     0.162880000000    -0.36471    
O162     O      0.267760000000     0.828450000000     0.140700000000    -0.354187   
O163     O      0.358240000000     0.852080000000     0.227760000000    -0.359226   
O164     O      0.330490000000     0.827900000000     0.249910000000    -0.353621   
O165     O      0.356810000000     0.853540000000     0.162870000000    -0.361323   
O166     O      0.329960000000     0.828420000000     0.140700000000    -0.35386    
O167     O      0.239500000000     0.852100000000     0.227790000000    -0.354583   
O168     O      0.267190000000     0.827850000000     0.249940000000    -0.353389   
O169     O      0.260730000000     0.890930000000     0.196320000000    -0.34046    
O170     O      0.202600000000     0.844950000000     0.194730000000    -0.513141   
O171     O      0.335870000000     0.890500000000     0.195820000000    -0.513824   
O172     O      0.395320000000     0.845840000000     0.194840000000    -0.327167   
O173     O      0.298730000000     0.842910000000     0.176190000000    -0.469229   
O174     O      0.298740000000     0.842740000000     0.214280000000    -0.610802   
O175     O      0.239440000000     0.740550000000     0.227770000000    -0.359147   
O176     O      0.267200000000     0.764730000000     0.249920000000    -0.35352    
O177     O      0.356600000000     0.738940000000     0.162870000000    -0.365002   
O178     O      0.329880000000     0.764170000000     0.140690000000    -0.354345   
O179     O      0.358180000000     0.740540000000     0.227780000000    -0.35457    
O180     O      0.330500000000     0.764790000000     0.249940000000    -0.353417   
O181     O      0.240830000000     0.739100000000     0.162870000000    -0.361651   
O182     O      0.267680000000     0.764210000000     0.140710000000    -0.354076   
O183     O      0.261800000000     0.702130000000     0.195830000000    -0.514067   
O184     O      0.202340000000     0.746800000000     0.194860000000    -0.327381   
O185     O      0.336940000000     0.701710000000     0.196330000000    -0.340257   
O186     O      0.395070000000     0.747690000000     0.194710000000    -0.513472   
O187     O      0.298940000000     0.749900000000     0.214290000000    -0.610867   
O188     O      0.298940000000     0.749720000000     0.176200000000    -0.469468   
O189     O      0.250990000000     0.796200000000     0.215880000000    -0.475142   
O190     O      0.346420000000     0.796410000000     0.174980000000    -0.624315   
O191     O      0.251230000000     0.796220000000     0.174990000000    -0.624378   
O192     O      0.346690000000     0.796430000000     0.215870000000    -0.475219   
Zr25     Zr     0.005020000000     0.504440000000     0.445270000000     1.29335    
Zr26     Zr     0.092510000000     0.504280000000     0.445290000000     1.29425    
Zr27     Zr     0.005170000000     0.588360000000     0.445280000000     1.29385    
Zr28     Zr     0.092650000000     0.588200000000     0.445280000000     1.29409    
Zr29     Zr     0.048830000000     0.546320000000     0.481250000000     1.27181    
Zr30     Zr     0.048840000000     0.546320000000     0.409370000000     1.26837    
Zr31     Zr     0.255000000000     0.838180000000     0.195340000000     1.29372    
Zr32     Zr     0.342480000000     0.838380000000     0.195320000000     1.29439    
Zr33     Zr     0.255190000000     0.754250000000     0.195320000000     1.2942     
Zr34     Zr     0.342670000000     0.754460000000     0.195330000000     1.29388    
Zr35     Zr     0.298830000000     0.796310000000     0.159370000000     1.27146    
Zr36     Zr     0.298840000000     0.796320000000     0.231250000000     1.26845    
C433     C      0.498200000000     0.994950000000     0.995320000000     0.383024   
C434     C      0.100910000000     0.996390000000     0.895280000000     0.38583    
C435     C      0.099660000000     0.995120000000     0.995340000000     0.381985   
C436     C      0.496860000000     0.996350000000     0.895240000000     0.387303   
C437     C      0.496780000000     0.596250000000     0.895260000000     0.383289   
C438     C      0.099440000000     0.597690000000     0.995330000000     0.380202   
C439     C      0.100850000000     0.596300000000     0.895260000000     0.384418   
C440     C      0.497970000000     0.597500000000     0.995320000000     0.378804   
C441     C      0.248180000000     0.847670000000     0.645290000000     0.382326   
C442     C      0.350890000000     0.846270000000     0.745340000000     0.383226   
C443     C      0.349640000000     0.847530000000     0.645280000000     0.381351   
C444     C      0.246830000000     0.846270000000     0.745370000000     0.384294   
C445     C      0.246800000000     0.746360000000     0.745350000000     0.382918   
C446     C      0.349460000000     0.744960000000     0.645290000000     0.382655   
C447     C      0.350850000000     0.746380000000     0.745370000000     0.384097   
C448     C      0.247990000000     0.745110000000     0.645290000000     0.381817   
C449     C      0.106890000000     0.606570000000     0.528740000000     0.0696489  
C450     C      0.121260000000     0.620980000000     0.543670000000    -0.092665   
C451     C      0.142950000000     0.641660000000     0.539590000000     0.048136   
C452     C      0.149580000000     0.647470000000     0.520350000000    -0.0928993  
C453     C      0.134760000000     0.632710000000     0.505750000000     0.0682683  
C454     C      0.158650000000     0.657020000000     0.555320000000    -0.00714817 
C455     C      0.143410000000     0.666710000000     0.571650000000    -0.0357354  
C456     C      0.158180000000     0.681070000000     0.586450000000    -0.0361511  
C457     C      0.188560000000     0.686080000000     0.585270000000    -0.00676881 
C458     C      0.203800000000     0.676400000000     0.568940000000    -0.0360986  
C459     C      0.189020000000     0.662040000000     0.554140000000    -0.035817   
C460     C      0.204270000000     0.701400000000     0.601010000000     0.047818   
C461     C      0.197640000000     0.695580000000     0.620240000000    -0.0919847  
C462     C      0.212510000000     0.710260000000     0.634840000000     0.067646   
C463     C      0.240430000000     0.736380000000     0.611890000000     0.0695972  
C464     C      0.226000000000     0.722050000000     0.596940000000    -0.0923598  
C465     C      0.210660000000     0.712200000000     0.755810000000     0.0682654  
C466     C      0.196050000000     0.697240000000     0.770410000000    -0.0917307  
C467     C      0.203310000000     0.702410000000     0.789630000000     0.0481898  
C468     C      0.225260000000     0.722830000000     0.793690000000    -0.0921716  
C469     C      0.239470000000     0.737390000000     0.778760000000     0.0703577  
C470     C      0.188160000000     0.686510000000     0.805350000000    -0.00665836 
C471     C      0.181750000000     0.656660000000     0.803530000000    -0.0358437  
C472     C      0.167580000000     0.641690000000     0.818330000000    -0.0357192  
C473     C      0.159480000000     0.656200000000     0.835280000000    -0.00686859 
C474     C      0.165890000000     0.686040000000     0.837090000000    -0.0357274  
C475     C      0.180060000000     0.701010000000     0.822300000000    -0.0357524  
C476     C      0.144320000000     0.640290000000     0.851000000000     0.0486873  
C477     C      0.122350000000     0.619890000000     0.846930000000    -0.0924048  
C478     C      0.108150000000     0.605310000000     0.861860000000     0.0707147  
C479     C      0.136970000000     0.630470000000     0.884810000000     0.0707241  
C480     C      0.151580000000     0.645440000000     0.870220000000    -0.0927517  
C481     C      0.107160000000     0.986350000000     0.528750000000     0.0733589  
C482     C      0.121590000000     0.972050000000     0.543700000000    -0.0935742  
C483     C      0.143330000000     0.951400000000     0.539640000000     0.0486667  
C484     C      0.149990000000     0.945590000000     0.520400000000    -0.0921245  
C485     C      0.135160000000     0.960310000000     0.505790000000     0.0680441  
C486     C      0.159030000000     0.936070000000     0.555370000000    -0.00687763 
C487     C      0.167780000000     0.951220000000     0.571940000000    -0.0356103  
C488     C      0.182570000000     0.936830000000     0.586730000000    -0.0358237  
C489     C      0.188960000000     0.906930000000     0.585290000000    -0.00679657 
C490     C      0.180200000000     0.891780000000     0.568720000000    -0.0358353  
C491     C      0.165420000000     0.906180000000     0.553940000000    -0.0356435  
C492     C      0.204650000000     0.891600000000     0.601020000000     0.0482811  
C493     C      0.198010000000     0.897400000000     0.620260000000    -0.0927533  
C494     C      0.212810000000     0.882620000000     0.634860000000     0.0684722  
C495     C      0.240770000000     0.856570000000     0.611890000000     0.0699627  
C496     C      0.226360000000     0.870930000000     0.596950000000    -0.0925087  
C497     C      0.356900000000     0.736060000000     0.611890000000     0.0697022  
C498     C      0.371270000000     0.721650000000     0.596950000000    -0.0925507  
C499     C      0.392970000000     0.700980000000     0.601030000000     0.0481128  
C500     C      0.399600000000     0.695180000000     0.620270000000    -0.0928871  
C501     C      0.384790000000     0.709950000000     0.634870000000     0.0683688  
C502     C      0.408650000000     0.685610000000     0.585310000000    -0.00708401 
C503     C      0.393400000000     0.675910000000     0.568980000000    -0.0357771  
C504     C      0.408170000000     0.661540000000     0.554170000000    -0.0361047  
C505     C      0.438550000000     0.656530000000     0.555340000000    -0.00685289 
C506     C      0.453800000000     0.666230000000     0.571680000000    -0.0360014  
C507     C      0.439030000000     0.680600000000     0.586480000000    -0.0359534  
C508     C      0.454250000000     0.641210000000     0.539610000000     0.0478869  
C509     C      0.447610000000     0.647030000000     0.520380000000    -0.0919179  
C510     C      0.462480000000     0.632330000000     0.505770000000     0.0675887  
C511     C      0.490410000000     0.606240000000     0.528730000000     0.0696235  
C512     C      0.475990000000     0.620570000000     0.543680000000    -0.092507   
C513     C      0.358250000000     0.855200000000     0.778750000000     0.0703197  
C514     C      0.372440000000     0.869770000000     0.793690000000    -0.0922035  
C515     C      0.394380000000     0.890210000000     0.789630000000     0.0482496  
C516     C      0.401640000000     0.895380000000     0.770410000000    -0.0916281  
C517     C      0.387000000000     0.880450000000     0.755800000000     0.0684776  
C518     C      0.409520000000     0.906100000000     0.805350000000    -0.00650539 
C519     C      0.393670000000     0.916440000000     0.821260000000    -0.0358297  
C520     C      0.407890000000     0.931440000000     0.836030000000    -0.0354428  
C521     C      0.438290000000     0.936450000000     0.835240000000    -0.0070258  
C522     C      0.454140000000     0.926100000000     0.819320000000    -0.0353692  
C523     C      0.439920000000     0.911120000000     0.804560000000    -0.0357137  
C524     C      0.453430000000     0.952350000000     0.850960000000     0.049555   
C525     C      0.446160000000     0.947200000000     0.870180000000    -0.0932238  
C526     C      0.460770000000     0.962140000000     0.884770000000     0.0713766  
C527     C      0.489550000000     0.987360000000     0.861840000000     0.0743524  
C528     C      0.475390000000     0.972770000000     0.846900000000    -0.0936786  
C529     C      0.489440000000     0.605180000000     0.861860000000     0.0704214  
C530     C      0.475260000000     0.619760000000     0.846910000000    -0.0922073  
C531     C      0.453320000000     0.640190000000     0.850970000000     0.0483308  
C532     C      0.446040000000     0.645360000000     0.870190000000    -0.0918964  
C533     C      0.460670000000     0.630430000000     0.884790000000     0.0685291  
C534     C      0.438180000000     0.656090000000     0.835250000000    -0.00658543 
C535     C      0.454040000000     0.666430000000     0.819340000000    -0.0358173  
C536     C      0.439830000000     0.681440000000     0.804570000000    -0.0355395  
C537     C      0.409420000000     0.686450000000     0.805360000000    -0.00681645 
C538     C      0.393570000000     0.676100000000     0.821270000000    -0.0355337  
C539     C      0.407770000000     0.661100000000     0.836030000000    -0.0357147  
C540     C      0.394290000000     0.702370000000     0.789640000000     0.0488619  
C541     C      0.401580000000     0.697220000000     0.770420000000    -0.0926779  
C542     C      0.386950000000     0.712170000000     0.755820000000     0.0707416  
C543     C      0.358180000000     0.737390000000     0.778770000000     0.0708678  
C544     C      0.372340000000     0.722790000000     0.793700000000    -0.0924132  
C545     C      0.108280000000     0.987470000000     0.861870000000     0.0739208  
C546     C      0.122450000000     0.972890000000     0.846930000000    -0.093651   
C547     C      0.144400000000     0.952460000000     0.850980000000     0.0488933  
C548     C      0.151670000000     0.947280000000     0.870210000000    -0.0922753  
C549     C      0.137030000000     0.962220000000     0.884800000000     0.0689515  
C550     C      0.159540000000     0.936560000000     0.835270000000    -0.0069056  
C551     C      0.143680000000     0.926210000000     0.819360000000    -0.0357209  
C552     C      0.157880000000     0.911210000000     0.804590000000    -0.0356492  
C553     C      0.188280000000     0.906190000000     0.805380000000    -0.00688668 
C554     C      0.204140000000     0.916540000000     0.821280000000    -0.0355959  
C555     C      0.189940000000     0.931540000000     0.836050000000    -0.0356493  
C556     C      0.203420000000     0.890280000000     0.789660000000     0.0487914  
C557     C      0.196130000000     0.895430000000     0.770430000000    -0.0927922  
C558     C      0.210740000000     0.880480000000     0.755840000000     0.0708598  
C559     C      0.239530000000     0.855260000000     0.778770000000     0.0707637  
C560     C      0.225370000000     0.869860000000     0.793710000000    -0.092614   
C561     C      0.462830000000     0.959980000000     0.505750000000     0.0689059  
C562     C      0.448030000000     0.945210000000     0.520350000000    -0.0931651  
C563     C      0.454660000000     0.951020000000     0.539590000000     0.0489958  
C564     C      0.476370000000     0.971690000000     0.543660000000    -0.0937785  
C565     C      0.490770000000     0.986060000000     0.528720000000     0.0734992  
C566     C      0.438960000000     0.935690000000     0.555320000000    -0.00708669 
C567     C      0.432570000000     0.905800000000     0.553890000000    -0.0356045  
C568     C      0.417790000000     0.891410000000     0.568680000000    -0.035884   
C569     C      0.409020000000     0.906570000000     0.585250000000    -0.0065983  
C570     C      0.415400000000     0.936460000000     0.586670000000    -0.0357806  
C571     C      0.430190000000     0.950850000000     0.571890000000    -0.0355641  
C572     C      0.393320000000     0.891250000000     0.600980000000     0.0479508  
C573     C      0.371580000000     0.870600000000     0.596920000000    -0.0921021  
C574     C      0.357150000000     0.856290000000     0.611870000000     0.0697095  
C575     C      0.385140000000     0.882350000000     0.634820000000     0.0677837  
C576     C      0.399960000000     0.897070000000     0.620220000000    -0.0918215  
H385     H      0.048750000000     0.983050000000     0.918030000000     0.209916   
H386     H      0.113370000000     0.546270000000     0.973960000000     0.204054   
H387     H      0.048930000000     0.609590000000     0.918030000000     0.209781   
H388     H      0.484280000000     0.546370000000     0.973940000000     0.204271   
H389     H      0.153580000000     0.516690000000     0.947300000000     0.125352   
H390     H      0.157860000000     0.578350000000     0.947200000000     0.185217   
H391     H      0.076440000000     0.645970000000     0.956300000000     0.148016   
H392     H      0.010960000000     0.650970000000     0.932770000000     0.199315   
H393     H      0.444080000000     0.575950000000     0.947250000000     0.125334   
H394     H      0.439810000000     0.514280000000     0.947190000000     0.185297   
H395     H      0.021220000000     0.946670000000     0.956300000000     0.147972   
H396     H      0.086720000000     0.941680000000     0.932780000000     0.199346   
H397     H      0.015460000000     0.650890000000     0.956590000000     0.202312   
H398     H      0.444450000000     0.978260000000     0.944890000000     0.202133   
H399     H      0.082200000000     0.941740000000     0.956600000000     0.202128   
H400     H      0.153210000000     0.614380000000     0.944930000000     0.20271    
H401     H      0.298710000000     0.859590000000     0.722590000000     0.209876   
H402     H      0.363380000000     0.796400000000     0.666660000000     0.204076   
H403     H      0.298960000000     0.733050000000     0.722590000000     0.210061   
H404     H      0.234280000000     0.796240000000     0.666670000000     0.204303   
H405     H      0.403570000000     0.826010000000     0.693290000000     0.125286   
H406     H      0.407870000000     0.764360000000     0.693420000000     0.185624   
H407     H      0.326490000000     0.696680000000     0.684330000000     0.148255   
H408     H      0.261040000000     0.691660000000     0.707840000000     0.199833   
H409     H      0.194090000000     0.766630000000     0.693360000000     0.125441   
H410     H      0.189790000000     0.828290000000     0.693430000000     0.185606   
H411     H      0.271170000000     0.895960000000     0.684320000000     0.148412   
H412     H      0.336650000000     0.900980000000     0.707830000000     0.20001    
H413     H      0.265510000000     0.691730000000     0.684020000000     0.202987   
H414     H      0.194420000000     0.864320000000     0.695720000000     0.203009   
H415     H      0.332150000000     0.900900000000     0.684020000000     0.203394   
H416     H      0.403250000000     0.728330000000     0.695690000000     0.203164   
H417     H      0.090370000000     0.590650000000     0.532650000000     0.0273586  
H418     H      0.115670000000     0.615550000000     0.558340000000     0.0514201  
H419     H      0.165920000000     0.663590000000     0.516540000000     0.0510105  
H420     H      0.140670000000     0.637990000000     0.991090000000     0.0201307  
H421     H      0.119930000000     0.663580000000     0.572880000000     0.0367864  
H422     H      0.145710000000     0.688650000000     0.598690000000     0.0370302  
H423     H      0.227280000000     0.679510000000     0.567710000000     0.0368081  
H424     H      0.201500000000     0.654450000000     0.541890000000     0.036461   
H425     H      0.181270000000     0.679480000000     0.624050000000     0.0516775  
H426     H      0.206620000000     0.704950000000     0.649510000000     0.0269704  
H427     H      0.256980000000     0.752270000000     0.607980000000     0.0273794  
H428     H      0.231600000000     0.727500000000     0.582270000000     0.0513278  
H429     H      0.204240000000     0.707440000000     0.741170000000     0.0273137  
H430     H      0.178930000000     0.681920000000     0.766620000000     0.0520195  
H431     H      0.231830000000     0.727270000000     0.808340000000     0.0516436  
H432     H      0.256430000000     0.752870000000     0.782650000000     0.0277249  
H433     H      0.188110000000     0.644730000000     0.790790000000     0.0370812  
H434     H      0.163370000000     0.618620000000     0.816590000000     0.0374006  
H435     H      0.159530000000     0.697970000000     0.849840000000     0.0372156  
H436     H      0.184270000000     0.724090000000     0.824040000000     0.0374274  
H437     H      0.115780000000     0.615470000000     0.832280000000     0.0517946  
H438     H      0.091190000000     0.589850000000     0.857970000000     0.027647   
H439     H      0.143410000000     0.635200000000     0.899460000000     0.0245609  
H440     H      0.168720000000     0.660750000000     0.874010000000     0.0515337  
H441     H      0.090460000000     0.502100000000     0.532640000000     0.0275396  
H442     H      0.115460000000     0.976930000000     0.558360000000     0.0525102  
H443     H      0.166890000000     0.930040000000     0.516600000000     0.0520464  
H444     H      0.141200000000     0.955150000000     0.991140000000     0.024578   
H445     H      0.163610000000     0.974350000000     0.573370000000     0.0374277  
H446     H      0.189390000000     0.949230000000     0.599160000000     0.0374072  
H447     H      0.184360000000     0.868650000000     0.567280000000     0.0370713  
H448     H      0.158590000000     0.893770000000     0.541500000000     0.0370844  
H449     H      0.181130000000     0.912970000000     0.624070000000     0.0512266  
H450     H      0.206760000000     0.887770000000     0.649520000000     0.0227705  
H451     H      0.257430000000     0.840790000000     0.607990000000     0.0275103  
H452     H      0.232500000000     0.866050000000     0.582290000000     0.0518462  
H453     H      0.340380000000     0.751990000000     0.607980000000     0.0273653  
H454     H      0.365670000000     0.727070000000     0.582270000000     0.0513798  
H455     H      0.415950000000     0.679070000000     0.624090000000     0.0510252  
H456     H      0.390710000000     0.704670000000     0.649530000000     0.0226401  
H457     H      0.369920000000     0.679030000000     0.567760000000     0.0368427  
H458     H      0.395690000000     0.653950000000     0.541940000000     0.0370517  
H459     H      0.477280000000     0.663120000000     0.572900000000     0.0367933  
H460     H      0.451510000000     0.688190000000     0.598710000000     0.0365472  
H461     H      0.431230000000     0.663120000000     0.516570000000     0.051689   
H462     H      0.456580000000     0.637650000000     0.991120000000     0.0244647  
H463     H      0.006970000000     0.590350000000     0.532630000000     0.027045   
H464     H      0.481590000000     0.615130000000     0.558340000000     0.0514261  
H465     H      0.341430000000     0.839570000000     0.782640000000     0.0277867  
H466     H      0.366400000000     0.864790000000     0.808350000000     0.0518351  
H467     H      0.418240000000     0.911250000000     0.766600000000     0.0521417  
H468     H      0.393290000000     0.885360000000     0.741160000000     0.0273535  
H469     H      0.370160000000     0.913360000000     0.822170000000     0.0370779  
H470     H      0.394970000000     0.939500000000     0.847930000000     0.0372438  
H471     H      0.477650000000     0.929200000000     0.818410000000     0.0371489  
H472     H      0.452850000000     0.903060000000     0.792650000000     0.0376767  
H473     H      0.429550000000     0.931340000000     0.873980000000     0.0518573  
H474     H      0.454450000000     0.957260000000     0.899430000000     0.0246538  
H475     H      0.006370000000     0.502990000000     0.857950000000     0.0273533  
H476     H      0.481440000000     0.977750000000     0.832230000000     0.0527174  
H477     H      0.006260000000     0.589560000000     0.857970000000     0.0274768  
H478     H      0.481300000000     0.614770000000     0.832250000000     0.0520107  
H479     H      0.429440000000     0.661220000000     0.873990000000     0.0519941  
H480     H      0.454370000000     0.635330000000     0.899430000000     0.0271081  
H481     H      0.477550000000     0.663340000000     0.818430000000     0.0372717  
H482     H      0.452760000000     0.689510000000     0.792670000000     0.0372643  
H483     H      0.370060000000     0.679190000000     0.822170000000     0.037326   
H484     H      0.394840000000     0.653030000000     0.847930000000     0.0376781  
H485     H      0.418180000000     0.681360000000     0.766610000000     0.0518014  
H486     H      0.393270000000     0.707290000000     0.741180000000     0.0247315  
H487     H      0.341350000000     0.753000000000     0.782660000000     0.0277484  
H488     H      0.366290000000     0.727760000000     0.808370000000     0.0519903  
H489     H      0.091470000000     0.503090000000     0.857980000000     0.0276477  
H490     H      0.116420000000     0.977880000000     0.832270000000     0.0525369  
H491     H      0.168270000000     0.931420000000     0.874010000000     0.0520378  
H492     H      0.143330000000     0.957310000000     0.899460000000     0.0271455  
H493     H      0.120160000000     0.929300000000     0.818450000000     0.0369562  
H494     H      0.144950000000     0.903140000000     0.792680000000     0.0370852  
H495     H      0.227660000000     0.913450000000     0.822190000000     0.0370887  
H496     H      0.202870000000     0.939610000000     0.847960000000     0.0376093  
H497     H      0.179520000000     0.911280000000     0.766630000000     0.0518591  
H498     H      0.204420000000     0.885360000000     0.741190000000     0.0247712  
H499     H      0.256350000000     0.839650000000     0.782670000000     0.0275947  
H500     H      0.231420000000     0.864890000000     0.808370000000     0.0517511  
H501     H      0.456790000000     0.954830000000     0.991090000000     0.0202482  
H502     H      0.431160000000     0.929630000000     0.516550000000     0.0513389  
H503     H      0.482500000000     0.976580000000     0.558320000000     0.0526218  
H504     H      0.007430000000     0.501840000000     0.532630000000     0.0271657  
H505     H      0.439420000000     0.893380000000     0.541460000000     0.0370812  
H506     H      0.413620000000     0.868280000000     0.567250000000     0.0371394  
H507     H      0.408560000000     0.948870000000     0.599100000000     0.0374201  
H508     H      0.434350000000     0.973980000000     0.573310000000     0.0374023  
H509     H      0.365450000000     0.865700000000     0.582250000000     0.0516665  
H510     H      0.340460000000     0.840540000000     0.607980000000     0.0275814  
H511     H      0.391170000000     0.887530000000     0.649480000000     0.0271349  
H512     H      0.416860000000     0.912630000000     0.624010000000     0.0520189  
N49      N      0.113600000000     0.612290000000     0.509870000000    -0.18967    
N50      N      0.233740000000     0.730620000000     0.630750000000    -0.189428   
N51      N      0.232330000000     0.732100000000     0.759910000000    -0.188965   
N52      N      0.115300000000     0.610590000000     0.880710000000    -0.189089   
N53      N      0.113900000000     0.980630000000     0.509890000000    -0.18998    
N54      N      0.234020000000     0.862250000000     0.630750000000    -0.189814   
N55      N      0.363620000000     0.730350000000     0.630750000000    -0.189797   
N56      N      0.483710000000     0.611990000000     0.509870000000    -0.189237   
N57      N      0.365360000000     0.860530000000     0.759890000000    -0.189076   
N58      N      0.482410000000     0.982060000000     0.880690000000    -0.189901   
N59      N      0.482310000000     0.610500000000     0.880710000000    -0.189194   
N60      N      0.365310000000     0.732090000000     0.759920000000    -0.188944   
N61      N      0.115390000000     0.982140000000     0.880720000000    -0.189877   
N62      N      0.232390000000     0.860560000000     0.759920000000    -0.189069   
N63      N      0.484030000000     0.980360000000     0.509860000000    -0.190495   
N64      N      0.363890000000     0.862020000000     0.630730000000    -0.189235   
O193     O      0.491070000000     0.988920000000     0.977730000000    -0.36402    
O194     O      0.017770000000     0.514170000000     0.999910000000    -0.355118   
O195     O      0.108270000000     0.990580000000     0.912860000000    -0.358604   
O196     O      0.080520000000     0.514750000000     0.890710000000    -0.353715   
O197     O      0.106830000000     0.989110000000     0.977750000000    -0.360602   
O198     O      0.079960000000     0.514230000000     0.999910000000    -0.354425   
O199     O      0.489530000000     0.990510000000     0.912820000000    -0.354025   
O200     O      0.017210000000     0.514770000000     0.890680000000    -0.353855   
O201     O      0.010790000000     0.951690000000     0.944290000000    -0.339847   
O202     O      0.452630000000     0.997630000000     0.945880000000    -0.50914    
O203     O      0.085930000000     0.952160000000     0.944790000000    -0.512434   
O204     O      0.145360000000     0.996860000000     0.945780000000    -0.324584   
O205     O      0.048750000000     0.999730000000     0.964420000000    -0.46663    
O206     O      0.048760000000     0.999900000000     0.926330000000    -0.608137   
O207     O      0.489420000000     0.602060000000     0.912840000000    -0.359334   
O208     O      0.017190000000     0.577890000000     0.890700000000    -0.353962   
O209     O      0.106580000000     0.603720000000     0.977740000000    -0.36473    
O210     O      0.079870000000     0.578470000000     0.999920000000    -0.354882   
O211     O      0.108160000000     0.602120000000     0.912840000000    -0.354867   
O212     O      0.080500000000     0.577870000000     0.890690000000    -0.353378   
O213     O      0.490800000000     0.603520000000     0.977730000000    -0.361124   
O214     O      0.017670000000     0.578400000000     0.999910000000    -0.354553   
O215     O      0.011740000000     0.640480000000     0.944780000000    -0.5135     
O216     O      0.452320000000     0.595780000000     0.945760000000    -0.327831   
O217     O      0.086890000000     0.640950000000     0.944300000000    -0.34072    
O218     O      0.145040000000     0.595010000000     0.945910000000    -0.513191   
O219     O      0.048920000000     0.592740000000     0.926340000000    -0.610851   
O220     O      0.048910000000     0.592910000000     0.964420000000    -0.469306   
O221     O      0.000990000000     0.546410000000     0.924730000000    -0.475378   
O222     O      0.096420000000     0.546250000000     0.965640000000    -0.624322   
O223     O      0.001230000000     0.546390000000     0.965630000000    -0.624625   
O224     O      0.096690000000     0.546230000000     0.924750000000    -0.475254   
O225     O      0.241040000000     0.853690000000     0.662880000000    -0.36472    
O226     O      0.267760000000     0.828450000000     0.640700000000    -0.354299   
O227     O      0.358240000000     0.852080000000     0.727760000000    -0.359221   
O228     O      0.330490000000     0.827900000000     0.749910000000    -0.353617   
O229     O      0.356810000000     0.853540000000     0.662870000000    -0.361335   
O230     O      0.329960000000     0.828420000000     0.640700000000    -0.35397    
O231     O      0.239500000000     0.852100000000     0.727790000000    -0.35461    
O232     O      0.267190000000     0.827850000000     0.749940000000    -0.353426   
O233     O      0.260730000000     0.890930000000     0.696320000000    -0.340448   
O234     O      0.202600000000     0.844950000000     0.694730000000    -0.513143   
O235     O      0.335870000000     0.890500000000     0.695820000000    -0.514237   
O236     O      0.395320000000     0.845840000000     0.694840000000    -0.327155   
O237     O      0.298730000000     0.842910000000     0.676190000000    -0.469196   
O238     O      0.298740000000     0.842740000000     0.714280000000    -0.610803   
O239     O      0.239440000000     0.740550000000     0.727770000000    -0.359112   
O240     O      0.267200000000     0.764730000000     0.749920000000    -0.353478   
O241     O      0.356600000000     0.738940000000     0.662870000000    -0.365031   
O242     O      0.329880000000     0.764170000000     0.640700000000    -0.354588   
O243     O      0.358180000000     0.740540000000     0.727780000000    -0.35437    
O244     O      0.330500000000     0.764790000000     0.749940000000    -0.353417   
O245     O      0.240830000000     0.739100000000     0.662870000000    -0.361661   
O246     O      0.267680000000     0.764210000000     0.640710000000    -0.354188   
O247     O      0.261800000000     0.702130000000     0.695830000000    -0.514071   
O248     O      0.202340000000     0.746800000000     0.694860000000    -0.327369   
O249     O      0.336940000000     0.701710000000     0.696330000000    -0.340464   
O250     O      0.395070000000     0.747690000000     0.694710000000    -0.513477   
O251     O      0.298940000000     0.749900000000     0.714290000000    -0.610867   
O252     O      0.298940000000     0.749720000000     0.676200000000    -0.469425   
O253     O      0.250990000000     0.796200000000     0.715880000000    -0.475139   
O254     O      0.346420000000     0.796410000000     0.674980000000    -0.624267   
O255     O      0.251230000000     0.796220000000     0.674990000000    -0.624338   
O256     O      0.346690000000     0.796430000000     0.715870000000    -0.475218   
Zr37     Zr     0.005020000000     0.504440000000     0.945270000000     1.29321    
Zr38     Zr     0.092510000000     0.504280000000     0.945300000000     1.29407    
Zr39     Zr     0.005170000000     0.588360000000     0.945280000000     1.29368    
Zr40     Zr     0.092650000000     0.588200000000     0.945280000000     1.29393    
Zr41     Zr     0.048830000000     0.546320000000     0.981250000000     1.27134    
Zr42     Zr     0.048840000000     0.546320000000     0.909370000000     1.2685     
Zr43     Zr     0.255000000000     0.838180000000     0.695340000000     1.29377    
Zr44     Zr     0.342480000000     0.838380000000     0.695320000000     1.29448    
Zr45     Zr     0.255190000000     0.754250000000     0.695320000000     1.29424    
Zr46     Zr     0.342670000000     0.754460000000     0.695330000000     1.29394    
Zr47     Zr     0.298830000000     0.796310000000     0.659360000000     1.27171    
Zr48     Zr     0.298840000000     0.796320000000     0.731250000000     1.26848    
C577     C      0.998200000000     0.494950000000     0.495320000000     0.382616   
C578     C      0.600910000000     0.496390000000     0.395270000000     0.383205   
C579     C      0.599660000000     0.495120000000     0.495340000000     0.381069   
C580     C      0.996860000000     0.496350000000     0.395240000000     0.384728   
C581     C      0.996780000000     0.096250000000     0.395260000000     0.383584   
C582     C      0.599440000000     0.097700000000     0.495330000000     0.382215   
C583     C      0.600850000000     0.096290000000     0.395260000000     0.384388   
C584     C      0.997970000000     0.097500000000     0.495320000000     0.381803   
C585     C      0.748180000000     0.347670000000     0.145290000000     0.38229    
C586     C      0.850890000000     0.346270000000     0.245340000000     0.383208   
C587     C      0.849640000000     0.347530000000     0.145280000000     0.381347   
C588     C      0.746830000000     0.346270000000     0.245370000000     0.384285   
C589     C      0.746800000000     0.246370000000     0.245350000000     0.383234   
C590     C      0.849460000000     0.244960000000     0.145290000000     0.38252    
C591     C      0.850850000000     0.246370000000     0.245360000000     0.384128   
C592     C      0.747990000000     0.245110000000     0.145290000000     0.381766   
C593     C      0.606890000000     0.106580000000     0.028730000000     0.0701588  
C594     C      0.621260000000     0.120980000000     0.043670000000    -0.0929384  
C595     C      0.642950000000     0.141670000000     0.039590000000     0.0487416  
C596     C      0.649580000000     0.147470000000     0.020350000000    -0.0941147  
C597     C      0.634770000000     0.132700000000     0.005750000000     0.0719395  
C598     C      0.658650000000     0.157020000000     0.055320000000    -0.00731008 
C599     C      0.643410000000     0.166710000000     0.071650000000    -0.0356848  
C600     C      0.658180000000     0.181070000000     0.086450000000    -0.036083   
C601     C      0.688560000000     0.186080000000     0.085280000000    -0.00681799 
C602     C      0.703810000000     0.176400000000     0.068930000000    -0.0361409  
C603     C      0.689020000000     0.162040000000     0.054140000000    -0.0356819  
C604     C      0.704270000000     0.201400000000     0.101010000000     0.0478547  
C605     C      0.697640000000     0.195570000000     0.120240000000    -0.0920727  
C606     C      0.712510000000     0.210270000000     0.134840000000     0.06766    
C607     C      0.740430000000     0.236370000000     0.111880000000     0.0696016  
C608     C      0.726010000000     0.222050000000     0.096940000000    -0.0924202  
C609     C      0.710660000000     0.212200000000     0.255810000000     0.0682946  
C610     C      0.696050000000     0.197240000000     0.270410000000    -0.0917867  
C611     C      0.703320000000     0.202410000000     0.289630000000     0.0481498  
C612     C      0.725270000000     0.222830000000     0.293690000000    -0.0921903  
C613     C      0.739470000000     0.237390000000     0.278760000000     0.0702433  
C614     C      0.688160000000     0.186510000000     0.305350000000    -0.00665591 
C615     C      0.681750000000     0.156660000000     0.303530000000    -0.0359495  
C616     C      0.667580000000     0.141690000000     0.318330000000    -0.0356873  
C617     C      0.659470000000     0.156200000000     0.335280000000    -0.00696081 
C618     C      0.665880000000     0.186040000000     0.337090000000    -0.0357038  
C619     C      0.680060000000     0.201010000000     0.322300000000    -0.0357715  
C620     C      0.644320000000     0.140300000000     0.351000000000     0.0487114  
C621     C      0.622350000000     0.119890000000     0.346920000000    -0.0925786  
C622     C      0.608150000000     0.105320000000     0.361860000000     0.0706689  
C623     C      0.636970000000     0.130470000000     0.384810000000     0.0707186  
C624     C      0.651580000000     0.145440000000     0.370220000000    -0.0928414  
C625     C      0.607160000000     0.486350000000     0.028740000000     0.0701806  
C626     C      0.621600000000     0.472040000000     0.043700000000    -0.0924974  
C627     C      0.643330000000     0.451400000000     0.039640000000     0.0486712  
C628     C      0.649990000000     0.445590000000     0.020400000000    -0.0930382  
C629     C      0.635160000000     0.460310000000     0.005790000000     0.0713876  
C630     C      0.659030000000     0.436070000000     0.055370000000    -0.00681422 
C631     C      0.667780000000     0.451220000000     0.071940000000    -0.0357215  
C632     C      0.682560000000     0.436820000000     0.086720000000    -0.0356792  
C633     C      0.688950000000     0.406930000000     0.085290000000    -0.0068924  
C634     C      0.680200000000     0.391780000000     0.068720000000    -0.0357309  
C635     C      0.665410000000     0.406180000000     0.053930000000    -0.0356614  
C636     C      0.704650000000     0.391600000000     0.101020000000     0.0482841  
C637     C      0.698010000000     0.397400000000     0.120260000000    -0.0928302  
C638     C      0.712810000000     0.382620000000     0.134860000000     0.0684437  
C639     C      0.740760000000     0.356560000000     0.111890000000     0.0699944  
C640     C      0.726370000000     0.370930000000     0.096950000000    -0.0925477  
C641     C      0.856900000000     0.236060000000     0.111880000000     0.069691   
C642     C      0.871270000000     0.221650000000     0.096950000000    -0.0926403  
C643     C      0.892960000000     0.200970000000     0.101030000000     0.0481217  
C644     C      0.899600000000     0.195180000000     0.120270000000    -0.092845   
C645     C      0.884790000000     0.209960000000     0.134870000000     0.0682941  
C646     C      0.908650000000     0.185610000000     0.085310000000    -0.00706164 
C647     C      0.893400000000     0.175910000000     0.068980000000    -0.035808   
C648     C      0.908170000000     0.161540000000     0.054180000000    -0.0359209  
C649     C      0.938550000000     0.156540000000     0.055340000000    -0.00704105 
C650     C      0.953800000000     0.166230000000     0.071680000000    -0.035884   
C651     C      0.939030000000     0.180590000000     0.086480000000    -0.0359645  
C652     C      0.954250000000     0.141220000000     0.039610000000     0.0485346  
C653     C      0.947610000000     0.147030000000     0.020380000000    -0.0931083  
C654     C      0.962470000000     0.132340000000     0.005770000000     0.0711709  
C655     C      0.990410000000     0.106240000000     0.028730000000     0.0704221  
C656     C      0.975990000000     0.120570000000     0.043680000000    -0.092837   
C657     C      0.858250000000     0.355200000000     0.278750000000     0.0703021  
C658     C      0.872430000000     0.369780000000     0.293680000000    -0.0921612  
C659     C      0.894380000000     0.390210000000     0.289630000000     0.0482136  
C660     C      0.901630000000     0.395380000000     0.270410000000    -0.0917345  
C661     C      0.887000000000     0.380450000000     0.255810000000     0.0685364  
C662     C      0.909530000000     0.406100000000     0.305350000000    -0.00660576 
C663     C      0.893670000000     0.416450000000     0.321260000000    -0.0358496  
C664     C      0.907890000000     0.431440000000     0.336030000000    -0.0355694  
C665     C      0.938290000000     0.436450000000     0.335240000000    -0.00691299 
C666     C      0.954140000000     0.426100000000     0.319320000000    -0.0355346  
C667     C      0.939920000000     0.411120000000     0.304560000000    -0.0356613  
C668     C      0.953430000000     0.452350000000     0.350960000000     0.0490163  
C669     C      0.946160000000     0.447190000000     0.370170000000    -0.0928601  
C670     C      0.960770000000     0.462140000000     0.384770000000     0.0709199  
C671     C      0.989550000000     0.487360000000     0.361840000000     0.0713283  
C672     C      0.975390000000     0.472770000000     0.346900000000    -0.0927537  
C673     C      0.989430000000     0.105180000000     0.361850000000     0.0708005  
C674     C      0.975260000000     0.119760000000     0.346910000000    -0.092486   
C675     C      0.953320000000     0.140190000000     0.350970000000     0.0483915  
C676     C      0.946040000000     0.145360000000     0.370180000000    -0.0918435  
C677     C      0.960670000000     0.130430000000     0.384790000000     0.0684658  
C678     C      0.938180000000     0.156090000000     0.335250000000    -0.00662586 
C679     C      0.954040000000     0.166430000000     0.319340000000    -0.0358556  
C680     C      0.939820000000     0.181440000000     0.304570000000    -0.0355424  
C681     C      0.909430000000     0.186450000000     0.305360000000    -0.00682604 
C682     C      0.893570000000     0.176100000000     0.321270000000    -0.0355638  
C683     C      0.907770000000     0.161100000000     0.336030000000    -0.035787   
C684     C      0.894290000000     0.202360000000     0.289640000000     0.0487908  
C685     C      0.901580000000     0.197220000000     0.270420000000    -0.092687   
C686     C      0.886950000000     0.212170000000     0.255820000000     0.0706619  
C687     C      0.858180000000     0.237390000000     0.278760000000     0.070934   
C688     C      0.872340000000     0.222790000000     0.293700000000    -0.0923863  
C689     C      0.608280000000     0.487470000000     0.361870000000     0.0703316  
C690     C      0.622450000000     0.472890000000     0.346930000000    -0.0922779  
C691     C      0.644400000000     0.452460000000     0.350980000000     0.0481121  
C692     C      0.651670000000     0.447280000000     0.370210000000    -0.0917994  
C693     C      0.637030000000     0.462220000000     0.384810000000     0.0684299  
C694     C      0.659530000000     0.436560000000     0.335270000000    -0.00674027 
C695     C      0.643680000000     0.426210000000     0.319360000000    -0.0358829  
C696     C      0.657880000000     0.411210000000     0.304590000000    -0.0356728  
C697     C      0.688280000000     0.406190000000     0.305380000000    -0.00694819 
C698     C      0.704140000000     0.416540000000     0.321280000000    -0.0356281  
C699     C      0.689940000000     0.431540000000     0.336050000000    -0.0358249  
C700     C      0.703420000000     0.390280000000     0.289650000000     0.048718   
C701     C      0.696130000000     0.395430000000     0.270430000000    -0.0927569  
C702     C      0.710740000000     0.380480000000     0.255830000000     0.0706275  
C703     C      0.739530000000     0.355260000000     0.278770000000     0.0707855  
C704     C      0.725370000000     0.369860000000     0.293710000000    -0.0925441  
C705     C      0.962830000000     0.459980000000     0.005750000000     0.0722068  
C706     C      0.948040000000     0.445200000000     0.020350000000    -0.0940705  
C707     C      0.954660000000     0.451030000000     0.039590000000     0.0490603  
C708     C      0.976370000000     0.471690000000     0.043660000000    -0.0928772  
C709     C      0.990770000000     0.486060000000     0.028720000000     0.0708513  
C710     C      0.938960000000     0.435690000000     0.055320000000    -0.00709234 
C711     C      0.932580000000     0.405800000000     0.053890000000    -0.0354885  
C712     C      0.917780000000     0.391410000000     0.068670000000    -0.0358739  
C713     C      0.909020000000     0.406570000000     0.085250000000    -0.00658608 
C714     C      0.915400000000     0.436460000000     0.086670000000    -0.035843   
C715     C      0.930190000000     0.450850000000     0.071890000000    -0.0356041  
C716     C      0.893320000000     0.391240000000     0.100980000000     0.0479112  
C717     C      0.871580000000     0.370590000000     0.096920000000    -0.0921476  
C718     C      0.857150000000     0.356290000000     0.111870000000     0.069781   
C719     C      0.885130000000     0.382350000000     0.134830000000     0.0676301  
C720     C      0.899960000000     0.397070000000     0.120220000000    -0.0917486  
H513     H      0.548750000000     0.483050000000     0.418030000000     0.210089   
H514     H      0.613380000000     0.046270000000     0.473960000000     0.203643   
H515     H      0.548930000000     0.109590000000     0.418030000000     0.209856   
H516     H      0.984280000000     0.046370000000     0.473940000000     0.204417   
H517     H      0.653580000000     0.016690000000     0.447310000000     0.12333    
H518     H      0.657860000000     0.078350000000     0.447210000000     0.18521    
H519     H      0.576440000000     0.145970000000     0.456300000000     0.148408   
H520     H      0.510960000000     0.150960000000     0.432780000000     0.20007    
H521     H      0.944080000000     0.075940000000     0.447250000000     0.125189   
H522     H      0.939810000000     0.014290000000     0.447180000000     0.182977   
H523     H      0.521220000000     0.446670000000     0.456300000000     0.148218   
H524     H      0.586710000000     0.441670000000     0.432780000000     0.199726   
H525     H      0.515460000000     0.150890000000     0.456590000000     0.202952   
H526     H      0.944460000000     0.478260000000     0.444890000000     0.203078   
H527     H      0.582200000000     0.441740000000     0.456590000000     0.20302    
H528     H      0.653210000000     0.114380000000     0.444930000000     0.20286    
H529     H      0.798710000000     0.359590000000     0.222590000000     0.209804   
H530     H      0.863370000000     0.296400000000     0.166660000000     0.204323   
H531     H      0.798960000000     0.233050000000     0.222590000000     0.210032   
H532     H      0.734280000000     0.296240000000     0.166670000000     0.204323   
H533     H      0.903570000000     0.326010000000     0.193290000000     0.125293   
H534     H      0.907870000000     0.264360000000     0.193420000000     0.185614   
H535     H      0.826490000000     0.196680000000     0.184320000000     0.147973   
H536     H      0.761040000000     0.191650000000     0.207840000000     0.199385   
H537     H      0.694090000000     0.266630000000     0.193360000000     0.125413   
H538     H      0.689790000000     0.328290000000     0.193430000000     0.185625   
H539     H      0.771170000000     0.395960000000     0.184320000000     0.148329   
H540     H      0.836640000000     0.400980000000     0.207840000000     0.199442   
H541     H      0.765510000000     0.191730000000     0.184020000000     0.20264    
H542     H      0.694410000000     0.364310000000     0.195720000000     0.203068   
H543     H      0.832150000000     0.400910000000     0.184020000000     0.202993   
H544     H      0.903250000000     0.228330000000     0.195690000000     0.203103   
H545     H      0.590370000000     0.090650000000     0.032650000000     0.0276889  
H546     H      0.615670000000     0.115560000000     0.058350000000     0.0513681  
H547     H      0.665920000000     0.163590000000     0.016540000000     0.0518588  
H548     H      0.640660000000     0.137990000000     0.491100000000     0.0225928  
H549     H      0.619930000000     0.163590000000     0.072870000000     0.0368329  
H550     H      0.645710000000     0.188650000000     0.098700000000     0.0369958  
H551     H      0.727280000000     0.179510000000     0.067710000000     0.0368918  
H552     H      0.701500000000     0.154450000000     0.041890000000     0.0365663  
H553     H      0.681270000000     0.179480000000     0.124050000000     0.0516067  
H554     H      0.706620000000     0.204950000000     0.149510000000     0.0268952  
H555     H      0.756990000000     0.252270000000     0.107980000000     0.0274517  
H556     H      0.731600000000     0.227500000000     0.082270000000     0.0514685  
H557     H      0.704240000000     0.207440000000     0.241170000000     0.027242   
H558     H      0.678930000000     0.181920000000     0.266620000000     0.0519296  
H559     H      0.731830000000     0.227260000000     0.308340000000     0.0516711  
H560     H      0.756420000000     0.252870000000     0.282640000000     0.027765   
H561     H      0.688110000000     0.144730000000     0.290790000000     0.0369133  
H562     H      0.663360000000     0.118610000000     0.316590000000     0.0371228  
H563     H      0.659530000000     0.197970000000     0.349840000000     0.0372931  
H564     H      0.684270000000     0.224090000000     0.324040000000     0.0374758  
H565     H      0.615780000000     0.115470000000     0.332280000000     0.0517223  
H566     H      0.591190000000     0.089850000000     0.357960000000     0.0275067  
H567     H      0.643410000000     0.135200000000     0.399460000000     0.0246177  
H568     H      0.668720000000     0.160740000000     0.374010000000     0.0516171  
H569     H      0.590460000000     0.002100000000     0.032640000000     0.0256339  
H570     H      0.615450000000     0.476930000000     0.058360000000     0.0518397  
H571     H      0.666890000000     0.430040000000     0.016600000000     0.0527323  
H572     H      0.641200000000     0.455150000000     0.491140000000     0.0270491  
H573     H      0.663610000000     0.474360000000     0.073370000000     0.0371409  
H574     H      0.689390000000     0.449230000000     0.099170000000     0.0370854  
H575     H      0.684370000000     0.368650000000     0.067280000000     0.0371906  
H576     H      0.658580000000     0.393770000000     0.041490000000     0.0373599  
H577     H      0.681130000000     0.412970000000     0.124060000000     0.0511186  
H578     H      0.706760000000     0.387770000000     0.149520000000     0.0226731  
H579     H      0.757430000000     0.340790000000     0.107990000000     0.0275488  
H580     H      0.732500000000     0.366050000000     0.082290000000     0.0519487  
H581     H      0.840380000000     0.251990000000     0.107980000000     0.0274392  
H582     H      0.865670000000     0.227070000000     0.082280000000     0.0515641  
H583     H      0.915950000000     0.179060000000     0.124090000000     0.0508911  
H584     H      0.890700000000     0.204670000000     0.149530000000     0.0225992  
H585     H      0.869920000000     0.179030000000     0.067760000000     0.0369045  
H586     H      0.895690000000     0.153960000000     0.041940000000     0.0371315  
H587     H      0.977280000000     0.163120000000     0.072900000000     0.0368425  
H588     H      0.951510000000     0.188190000000     0.098710000000     0.0365661  
H589     H      0.931230000000     0.163120000000     0.016570000000     0.0525426  
H590     H      0.956580000000     0.137650000000     0.491120000000     0.0269836  
H591     H      0.506970000000     0.090350000000     0.032630000000     0.0277743  
H592     H      0.981590000000     0.115130000000     0.058350000000     0.0514299  
H593     H      0.841430000000     0.339580000000     0.282640000000     0.0277779  
H594     H      0.866400000000     0.364790000000     0.308350000000     0.0517978  
H595     H      0.918240000000     0.411250000000     0.266600000000     0.0519709  
H596     H      0.893290000000     0.385370000000     0.241160000000     0.0272519  
H597     H      0.870160000000     0.413360000000     0.322170000000     0.0369718  
H598     H      0.894960000000     0.439500000000     0.347930000000     0.0371096  
H599     H      0.977650000000     0.429190000000     0.318410000000     0.0371145  
H600     H      0.952850000000     0.403060000000     0.292640000000     0.0375802  
H601     H      0.929540000000     0.431340000000     0.373980000000     0.0517736  
H602     H      0.954450000000     0.457260000000     0.399420000000     0.0247133  
H603     H      0.506370000000     0.002980000000     0.357950000000     0.0252153  
H604     H      0.981440000000     0.477750000000     0.332240000000     0.052056   
H605     H      0.506260000000     0.089560000000     0.357960000000     0.027689   
H606     H      0.981300000000     0.114770000000     0.332250000000     0.0519375  
H607     H      0.929440000000     0.161230000000     0.373990000000     0.0520256  
H608     H      0.954370000000     0.135340000000     0.399430000000     0.0272018  
H609     H      0.977550000000     0.163340000000     0.318430000000     0.0372762  
H610     H      0.952760000000     0.189510000000     0.292670000000     0.0372341  
H611     H      0.870060000000     0.179190000000     0.322170000000     0.0372728  
H612     H      0.894850000000     0.153040000000     0.347930000000     0.0376349  
H613     H      0.918180000000     0.181360000000     0.266610000000     0.0516816  
H614     H      0.893270000000     0.207300000000     0.241180000000     0.0246797  
H615     H      0.841350000000     0.253000000000     0.282660000000     0.027738   
H616     H      0.866280000000     0.227760000000     0.308370000000     0.0520026  
H617     H      0.591470000000     0.003090000000     0.357970000000     0.0251938  
H618     H      0.616420000000     0.477880000000     0.332260000000     0.0516249  
H619     H      0.668270000000     0.431420000000     0.374010000000     0.0519327  
H620     H      0.643320000000     0.457310000000     0.399460000000     0.0272256  
H621     H      0.620160000000     0.429300000000     0.318450000000     0.0368906  
H622     H      0.644950000000     0.403140000000     0.292680000000     0.0370106  
H623     H      0.727660000000     0.413450000000     0.322180000000     0.0369897  
H624     H      0.702870000000     0.439610000000     0.347960000000     0.0374997  
H625     H      0.679520000000     0.411280000000     0.266630000000     0.0516608  
H626     H      0.704420000000     0.385360000000     0.241190000000     0.024687   
H627     H      0.756350000000     0.339640000000     0.282660000000     0.0276048  
H628     H      0.731420000000     0.364890000000     0.308380000000     0.0517044  
H629     H      0.956790000000     0.454830000000     0.491100000000     0.0226816  
H630     H      0.931160000000     0.429630000000     0.016550000000     0.0520239  
H631     H      0.982500000000     0.476580000000     0.058330000000     0.0520307  
H632     H      0.507430000000     0.001840000000     0.032630000000     0.0255923  
H633     H      0.939410000000     0.393380000000     0.041450000000     0.0373289  
H634     H      0.913620000000     0.368280000000     0.067250000000     0.0373016  
H635     H      0.908560000000     0.448870000000     0.099100000000     0.037213   
H636     H      0.934350000000     0.473980000000     0.073310000000     0.0371235  
H637     H      0.865450000000     0.365700000000     0.082250000000     0.0517735  
H638     H      0.840460000000     0.340540000000     0.107980000000     0.0276159  
H639     H      0.891180000000     0.387530000000     0.149480000000     0.0270632  
H640     H      0.916860000000     0.412630000000     0.124010000000     0.0518768  
N65      N      0.613600000000     0.112290000000     0.009870000000    -0.189026   
N66      N      0.733740000000     0.230620000000     0.130750000000    -0.189424   
N67      N      0.732330000000     0.232100000000     0.259900000000    -0.189036   
N68      N      0.615300000000     0.110590000000     0.380710000000    -0.189088   
N69      N      0.613900000000     0.480630000000     0.009880000000    -0.188555   
N70      N      0.734020000000     0.362250000000     0.130750000000    -0.189826   
N71      N      0.863620000000     0.230360000000     0.130750000000    -0.189764   
N72      N      0.983710000000     0.111990000000     0.009870000000    -0.188434   
N73      N      0.865360000000     0.360530000000     0.259890000000    -0.189115   
N74      N      0.982410000000     0.482060000000     0.380690000000    -0.189172   
N75      N      0.982310000000     0.110500000000     0.380710000000    -0.189271   
N76      N      0.865310000000     0.232090000000     0.259920000000    -0.188945   
N77      N      0.615390000000     0.482140000000     0.380720000000    -0.189163   
N78      N      0.732390000000     0.360560000000     0.259930000000    -0.189      
N79      N      0.984030000000     0.480360000000     0.009860000000    -0.189056   
N80      N      0.863880000000     0.362020000000     0.130730000000    -0.189256   
O257     O      0.991070000000     0.488920000000     0.477730000000    -0.364618   
O258     O      0.517770000000     0.014170000000     0.499920000000    -0.356421   
O259     O      0.608270000000     0.490580000000     0.412860000000    -0.359172   
O260     O      0.580520000000     0.014760000000     0.390710000000    -0.355913   
O261     O      0.606830000000     0.489120000000     0.477750000000    -0.361205   
O262     O      0.579960000000     0.014230000000     0.499920000000    -0.355953   
O263     O      0.989530000000     0.490510000000     0.412820000000    -0.354499   
O264     O      0.517200000000     0.014770000000     0.390670000000    -0.355649   
O265     O      0.510790000000     0.451690000000     0.444290000000    -0.340439   
O266     O      0.952630000000     0.497630000000     0.445880000000    -0.513232   
O267     O      0.585930000000     0.452150000000     0.444790000000    -0.513923   
O268     O      0.645360000000     0.496860000000     0.445780000000    -0.327356   
O269     O      0.548750000000     0.499730000000     0.464420000000    -0.469276   
O270     O      0.548760000000     0.499900000000     0.426330000000    -0.611064   
O271     O      0.989420000000     0.102060000000     0.412840000000    -0.3592     
O272     O      0.517190000000     0.077890000000     0.390700000000    -0.353584   
O273     O      0.606570000000     0.103720000000     0.477740000000    -0.364868   
O274     O      0.579870000000     0.078480000000     0.499930000000    -0.354243   
O275     O      0.608160000000     0.102120000000     0.412840000000    -0.354858   
O276     O      0.580500000000     0.077870000000     0.390690000000    -0.353485   
O277     O      0.990800000000     0.103510000000     0.477740000000    -0.361272   
O278     O      0.517670000000     0.078410000000     0.499900000000    -0.354063   
O279     O      0.511750000000     0.140480000000     0.444780000000    -0.514131   
O280     O      0.952320000000     0.095780000000     0.445760000000    -0.3273     
O281     O      0.586880000000     0.140950000000     0.444300000000    -0.340618   
O282     O      0.645040000000     0.095010000000     0.445910000000    -0.513132   
O283     O      0.548910000000     0.092740000000     0.426340000000    -0.610712   
O284     O      0.548910000000     0.092910000000     0.464420000000    -0.469076   
O285     O      0.500990000000     0.046410000000     0.424730000000    -0.475286   
O286     O      0.596420000000     0.046250000000     0.465640000000    -0.623868   
O287     O      0.501230000000     0.046390000000     0.465630000000    -0.624191   
O288     O      0.596690000000     0.046230000000     0.424750000000    -0.475411   
O289     O      0.741040000000     0.353690000000     0.162880000000    -0.364741   
O290     O      0.767760000000     0.328450000000     0.140700000000    -0.354182   
O291     O      0.858240000000     0.352080000000     0.227760000000    -0.359238   
O292     O      0.830490000000     0.327900000000     0.249910000000    -0.353619   
O293     O      0.856810000000     0.353540000000     0.162870000000    -0.36137    
O294     O      0.829960000000     0.328420000000     0.140700000000    -0.353886   
O295     O      0.739500000000     0.352100000000     0.227790000000    -0.35469    
O296     O      0.767180000000     0.327850000000     0.249940000000    -0.353461   
O297     O      0.760730000000     0.390930000000     0.196320000000    -0.340597   
O298     O      0.702600000000     0.344950000000     0.194730000000    -0.513403   
O299     O      0.835870000000     0.390500000000     0.195820000000    -0.513634   
O300     O      0.895320000000     0.345840000000     0.194840000000    -0.327205   
O301     O      0.798720000000     0.342910000000     0.176190000000    -0.469177   
O302     O      0.798740000000     0.342740000000     0.214280000000    -0.610731   
O303     O      0.739440000000     0.240550000000     0.227770000000    -0.359141   
O304     O      0.767190000000     0.264730000000     0.249920000000    -0.353663   
O305     O      0.856600000000     0.238940000000     0.162870000000    -0.365041   
O306     O      0.829880000000     0.264170000000     0.140690000000    -0.354367   
O307     O      0.858180000000     0.240540000000     0.227780000000    -0.354593   
O308     O      0.830500000000     0.264790000000     0.249940000000    -0.353327   
O309     O      0.740840000000     0.239090000000     0.162870000000    -0.361645   
O310     O      0.767680000000     0.264210000000     0.140710000000    -0.354083   
O311     O      0.761800000000     0.202140000000     0.195830000000    -0.513513   
O312     O      0.702340000000     0.246800000000     0.194860000000    -0.327403   
O313     O      0.836940000000     0.201710000000     0.196330000000    -0.340348   
O314     O      0.895070000000     0.247690000000     0.194710000000    -0.513448   
O315     O      0.798930000000     0.249900000000     0.214290000000    -0.610841   
O316     O      0.798930000000     0.249720000000     0.176200000000    -0.46945    
O317     O      0.750980000000     0.296200000000     0.215880000000    -0.47512    
O318     O      0.846420000000     0.296410000000     0.174980000000    -0.62453    
O319     O      0.751230000000     0.296230000000     0.174990000000    -0.624459   
O320     O      0.846690000000     0.296430000000     0.215870000000    -0.475182   
Zr49     Zr     0.505020000000     0.004440000000     0.445270000000     1.28751    
Zr50     Zr     0.592500000000     0.004280000000     0.445290000000     1.28811    
Zr51     Zr     0.505160000000     0.088360000000     0.445280000000     1.29438    
Zr52     Zr     0.592650000000     0.088200000000     0.445280000000     1.29396    
Zr53     Zr     0.548830000000     0.046320000000     0.481250000000     1.27084    
Zr54     Zr     0.548850000000     0.046320000000     0.409370000000     1.26751    
Zr55     Zr     0.754990000000     0.338180000000     0.195340000000     1.2939     
Zr56     Zr     0.842480000000     0.338380000000     0.195320000000     1.29432    
Zr57     Zr     0.755190000000     0.254260000000     0.195320000000     1.29423    
Zr58     Zr     0.842670000000     0.254460000000     0.195330000000     1.29375    
Zr59     Zr     0.798830000000     0.296310000000     0.159370000000     1.2715     
Zr60     Zr     0.798840000000     0.296320000000     0.231250000000     1.26832    
C721     C      0.998200000000     0.494950000000     0.995320000000     0.380688   
C722     C      0.600910000000     0.496390000000     0.895280000000     0.383265   
C723     C      0.599660000000     0.495120000000     0.995340000000     0.379324   
C724     C      0.996860000000     0.496350000000     0.895240000000     0.384851   
C725     C      0.996780000000     0.096250000000     0.895260000000     0.383579   
C726     C      0.599440000000     0.097700000000     0.995330000000     0.380283   
C727     C      0.600850000000     0.096290000000     0.895260000000     0.384373   
C728     C      0.997970000000     0.097500000000     0.995320000000     0.379286   
C729     C      0.748180000000     0.347670000000     0.645290000000     0.382326   
C730     C      0.850890000000     0.346270000000     0.745340000000     0.38321    
C731     C      0.849640000000     0.347530000000     0.645280000000     0.381391   
C732     C      0.746830000000     0.346270000000     0.745370000000     0.384443   
C733     C      0.746800000000     0.246370000000     0.745350000000     0.383108   
C734     C      0.849460000000     0.244960000000     0.645290000000     0.3827     
C735     C      0.850850000000     0.246370000000     0.745370000000     0.384031   
C736     C      0.747990000000     0.245110000000     0.645290000000     0.381809   
C737     C      0.606890000000     0.106580000000     0.528740000000     0.0696306  
C738     C      0.621260000000     0.120980000000     0.543670000000    -0.0927773  
C739     C      0.642950000000     0.141670000000     0.539590000000     0.0480838  
C740     C      0.649580000000     0.147470000000     0.520350000000    -0.092926   
C741     C      0.634770000000     0.132700000000     0.505750000000     0.0681966  
C742     C      0.658650000000     0.157020000000     0.555320000000    -0.00721926 
C743     C      0.643410000000     0.166710000000     0.571650000000    -0.0357614  
C744     C      0.658180000000     0.181070000000     0.586450000000    -0.0362013  
C745     C      0.688560000000     0.186080000000     0.585270000000    -0.00677563 
C746     C      0.703810000000     0.176400000000     0.568940000000    -0.0362253  
C747     C      0.689020000000     0.162040000000     0.554140000000    -0.035835   
C748     C      0.704270000000     0.201400000000     0.601010000000     0.0477896  
C749     C      0.697640000000     0.195570000000     0.620240000000    -0.0920669  
C750     C      0.712510000000     0.210270000000     0.634840000000     0.0676563  
C751     C      0.740430000000     0.236370000000     0.611890000000     0.0696685  
C752     C      0.726010000000     0.222050000000     0.596940000000    -0.0924454  
C753     C      0.710660000000     0.212200000000     0.755810000000     0.0682372  
C754     C      0.696050000000     0.197240000000     0.770410000000    -0.091752   
C755     C      0.703320000000     0.202410000000     0.789630000000     0.0481641  
C756     C      0.725270000000     0.222830000000     0.793690000000    -0.0922456  
C757     C      0.739470000000     0.237390000000     0.778760000000     0.0703802  
C758     C      0.688160000000     0.186510000000     0.805350000000    -0.00665958 
C759     C      0.681750000000     0.156660000000     0.803530000000    -0.0359455  
C760     C      0.667580000000     0.141690000000     0.818330000000    -0.0356906  
C761     C      0.659470000000     0.156200000000     0.835280000000    -0.00696381 
C762     C      0.665880000000     0.186040000000     0.837090000000    -0.0357181  
C763     C      0.680060000000     0.201010000000     0.822300000000    -0.0357832  
C764     C      0.644320000000     0.140300000000     0.851000000000     0.0486641  
C765     C      0.622350000000     0.119890000000     0.846930000000    -0.0924876  
C766     C      0.608150000000     0.105320000000     0.861860000000     0.0706421  
C767     C      0.636970000000     0.130470000000     0.884810000000     0.0706736  
C768     C      0.651580000000     0.145440000000     0.870220000000    -0.0928508  
C769     C      0.607160000000     0.486350000000     0.528750000000     0.0697231  
C770     C      0.621600000000     0.472040000000     0.543700000000    -0.0922573  
C771     C      0.643330000000     0.451400000000     0.539640000000     0.0479795  
C772     C      0.649990000000     0.445590000000     0.520400000000    -0.0918067  
C773     C      0.635160000000     0.460310000000     0.505790000000     0.0675859  
C774     C      0.659030000000     0.436070000000     0.555370000000    -0.00673661 
C775     C      0.667780000000     0.451220000000     0.571940000000    -0.0357798  
C776     C      0.682560000000     0.436820000000     0.586730000000    -0.0358566  
C777     C      0.688950000000     0.406930000000     0.585290000000    -0.00685837 
C778     C      0.680200000000     0.391780000000     0.568720000000    -0.0358184  
C779     C      0.665410000000     0.406180000000     0.553940000000    -0.0357723  
C780     C      0.704650000000     0.391600000000     0.601020000000     0.0482161  
C781     C      0.698010000000     0.397400000000     0.620260000000    -0.0927819  
C782     C      0.712810000000     0.382620000000     0.634860000000     0.0684131  
C783     C      0.740760000000     0.356560000000     0.611890000000     0.0699602  
C784     C      0.726370000000     0.370930000000     0.596950000000    -0.0925504  
C785     C      0.856900000000     0.236060000000     0.611890000000     0.0697193  
C786     C      0.871270000000     0.221650000000     0.596950000000    -0.0925644  
C787     C      0.892960000000     0.200970000000     0.601030000000     0.0480591  
C788     C      0.899600000000     0.195180000000     0.620270000000    -0.0928425  
C789     C      0.884790000000     0.209960000000     0.634870000000     0.0682936  
C790     C      0.908650000000     0.185610000000     0.585310000000    -0.00712144 
C791     C      0.893400000000     0.175910000000     0.568980000000    -0.03582    
C792     C      0.908170000000     0.161540000000     0.554170000000    -0.0361745  
C793     C      0.938550000000     0.156540000000     0.555340000000    -0.00688966 
C794     C      0.953800000000     0.166230000000     0.571680000000    -0.0360359  
C795     C      0.939030000000     0.180590000000     0.586480000000    -0.0359579  
C796     C      0.954250000000     0.141220000000     0.539610000000     0.0478723  
C797     C      0.947610000000     0.147030000000     0.520380000000    -0.0919414  
C798     C      0.962470000000     0.132340000000     0.505770000000     0.0674793  
C799     C      0.990410000000     0.106240000000     0.528730000000     0.0700111  
C800     C      0.975990000000     0.120570000000     0.543680000000    -0.0927064  
C801     C      0.858250000000     0.355200000000     0.778750000000     0.0702885  
C802     C      0.872430000000     0.369780000000     0.793690000000    -0.0922093  
C803     C      0.894380000000     0.390210000000     0.789630000000     0.0481936  
C804     C      0.901630000000     0.395380000000     0.770410000000    -0.0916327  
C805     C      0.887000000000     0.380450000000     0.755800000000     0.0684378  
C806     C      0.909530000000     0.406100000000     0.805350000000    -0.00656836 
C807     C      0.893670000000     0.416450000000     0.821260000000    -0.0358763  
C808     C      0.907890000000     0.431440000000     0.836030000000    -0.0355794  
C809     C      0.938290000000     0.436450000000     0.835240000000    -0.00690837 
C810     C      0.954140000000     0.426100000000     0.819320000000    -0.0355141  
C811     C      0.939920000000     0.411120000000     0.804560000000    -0.03573    
C812     C      0.953430000000     0.452350000000     0.850960000000     0.0489194  
C813     C      0.946160000000     0.447190000000     0.870180000000    -0.0929137  
C814     C      0.960770000000     0.462140000000     0.884770000000     0.0709448  
C815     C      0.989550000000     0.487360000000     0.861840000000     0.071265   
C816     C      0.975390000000     0.472770000000     0.846900000000    -0.0926154  
C817     C      0.989430000000     0.105180000000     0.861860000000     0.0708625  
C818     C      0.975260000000     0.119760000000     0.846910000000    -0.092484   
C819     C      0.953320000000     0.140190000000     0.850970000000     0.0483462  
C820     C      0.946040000000     0.145360000000     0.870190000000    -0.0919215  
C821     C      0.960670000000     0.130430000000     0.884790000000     0.0685015  
C822     C      0.938180000000     0.156090000000     0.835250000000    -0.00662949 
C823     C      0.954040000000     0.166430000000     0.819340000000    -0.0358576  
C824     C      0.939820000000     0.181440000000     0.804570000000    -0.0355427  
C825     C      0.909430000000     0.186450000000     0.805360000000    -0.00682345 
C826     C      0.893570000000     0.176100000000     0.821270000000    -0.035578   
C827     C      0.907770000000     0.161100000000     0.836030000000    -0.0358003  
C828     C      0.894290000000     0.202360000000     0.789640000000     0.0487887  
C829     C      0.901580000000     0.197220000000     0.770420000000    -0.0926781  
C830     C      0.886950000000     0.212170000000     0.755820000000     0.0706931  
C831     C      0.858180000000     0.237390000000     0.778770000000     0.0708402  
C832     C      0.872340000000     0.222790000000     0.793700000000    -0.0923608  
C833     C      0.608280000000     0.487470000000     0.861870000000     0.0703543  
C834     C      0.622450000000     0.472890000000     0.846930000000    -0.092416   
C835     C      0.644400000000     0.452460000000     0.850980000000     0.0481812  
C836     C      0.651670000000     0.447280000000     0.870210000000    -0.0919408  
C837     C      0.637030000000     0.462220000000     0.884800000000     0.0684851  
C838     C      0.659530000000     0.436560000000     0.835270000000    -0.0067802  
C839     C      0.643680000000     0.426210000000     0.819360000000    -0.0358738  
C840     C      0.657880000000     0.411210000000     0.804590000000    -0.0356659  
C841     C      0.688280000000     0.406190000000     0.805380000000    -0.00697067 
C842     C      0.704140000000     0.416540000000     0.821280000000    -0.035631   
C843     C      0.689940000000     0.431540000000     0.836050000000    -0.0358296  
C844     C      0.703420000000     0.390280000000     0.789660000000     0.0487518  
C845     C      0.696130000000     0.395430000000     0.770430000000    -0.092842   
C846     C      0.710740000000     0.380480000000     0.755840000000     0.0708105  
C847     C      0.739530000000     0.355260000000     0.778770000000     0.0707476  
C848     C      0.725370000000     0.369860000000     0.793710000000    -0.092634   
C849     C      0.962830000000     0.459980000000     0.505750000000     0.0685057  
C850     C      0.948040000000     0.445200000000     0.520350000000    -0.0928917  
C851     C      0.954660000000     0.451030000000     0.539590000000     0.0483933  
C852     C      0.976370000000     0.471690000000     0.543660000000    -0.0927341  
C853     C      0.990770000000     0.486060000000     0.528720000000     0.0704324  
C854     C      0.938960000000     0.435690000000     0.555320000000    -0.00694148 
C855     C      0.932580000000     0.405800000000     0.553890000000    -0.0357444  
C856     C      0.917780000000     0.391410000000     0.568680000000    -0.0358734  
C857     C      0.909020000000     0.406570000000     0.585250000000    -0.00665858 
C858     C      0.915400000000     0.436460000000     0.586670000000    -0.0358306  
C859     C      0.930190000000     0.450850000000     0.571890000000    -0.0357551  
C860     C      0.893320000000     0.391240000000     0.600980000000     0.0479252  
C861     C      0.871580000000     0.370590000000     0.596920000000    -0.0921939  
C862     C      0.857150000000     0.356290000000     0.611870000000     0.0697644  
C863     C      0.885130000000     0.382350000000     0.634820000000     0.0677363  
C864     C      0.899960000000     0.397070000000     0.620220000000    -0.0918563  
H641     H      0.548750000000     0.483050000000     0.918030000000     0.210054   
H642     H      0.613380000000     0.046270000000     0.973960000000     0.203412   
H643     H      0.548930000000     0.109590000000     0.918030000000     0.20983    
H644     H      0.984280000000     0.046370000000     0.973940000000     0.204155   
H645     H      0.653580000000     0.016690000000     0.947300000000     0.123186   
H646     H      0.657860000000     0.078350000000     0.947200000000     0.184987   
H647     H      0.576440000000     0.145970000000     0.956300000000     0.148147   
H648     H      0.510960000000     0.150960000000     0.932770000000     0.199562   
H649     H      0.944080000000     0.075940000000     0.947250000000     0.125018   
H650     H      0.939810000000     0.014290000000     0.947190000000     0.18268    
H651     H      0.521220000000     0.446670000000     0.956300000000     0.147961   
H652     H      0.586710000000     0.441670000000     0.932780000000     0.199472   
H653     H      0.515460000000     0.150890000000     0.956590000000     0.2025     
H654     H      0.944460000000     0.478260000000     0.944890000000     0.202794   
H655     H      0.582200000000     0.441740000000     0.956600000000     0.202324   
H656     H      0.653210000000     0.114380000000     0.944930000000     0.202599   
H657     H      0.798710000000     0.359590000000     0.722590000000     0.209808   
H658     H      0.863370000000     0.296400000000     0.666660000000     0.20431    
H659     H      0.798960000000     0.233050000000     0.722590000000     0.210043   
H660     H      0.734280000000     0.296240000000     0.666670000000     0.204306   
H661     H      0.903570000000     0.326010000000     0.693290000000     0.125299   
H662     H      0.907870000000     0.264360000000     0.693420000000     0.185626   
H663     H      0.826490000000     0.196680000000     0.684330000000     0.148191   
H664     H      0.761040000000     0.191650000000     0.707840000000     0.199397   
H665     H      0.694090000000     0.266630000000     0.693360000000     0.125421   
H666     H      0.689790000000     0.328290000000     0.693430000000     0.185638   
H667     H      0.771170000000     0.395960000000     0.684320000000     0.148329   
H668     H      0.836640000000     0.400980000000     0.707830000000     0.199798   
H669     H      0.765510000000     0.191730000000     0.684020000000     0.202641   
H670     H      0.694410000000     0.364310000000     0.695720000000     0.203084   
H671     H      0.832150000000     0.400910000000     0.684020000000     0.2031     
H672     H      0.903250000000     0.228330000000     0.695690000000     0.20312    
H673     H      0.590370000000     0.090650000000     0.532650000000     0.0272191  
H674     H      0.615670000000     0.115560000000     0.558340000000     0.0512723  
H675     H      0.665920000000     0.163590000000     0.516540000000     0.0509835  
H676     H      0.640660000000     0.137990000000     0.991090000000     0.0200716  
H677     H      0.619930000000     0.163590000000     0.572880000000     0.0367611  
H678     H      0.645710000000     0.188650000000     0.598690000000     0.037005   
H679     H      0.727280000000     0.179510000000     0.567710000000     0.036762   
H680     H      0.701500000000     0.154450000000     0.541890000000     0.0363311  
H681     H      0.681270000000     0.179480000000     0.624050000000     0.0516004  
H682     H      0.706620000000     0.204950000000     0.649510000000     0.0269013  
H683     H      0.756990000000     0.252270000000     0.607980000000     0.0273717  
H684     H      0.731600000000     0.227500000000     0.582270000000     0.0513466  
H685     H      0.704240000000     0.207440000000     0.741170000000     0.0272675  
H686     H      0.678930000000     0.181920000000     0.766620000000     0.0519402  
H687     H      0.731830000000     0.227260000000     0.808340000000     0.0516531  
H688     H      0.756420000000     0.252870000000     0.782650000000     0.0277085  
H689     H      0.688110000000     0.144730000000     0.790790000000     0.0369244  
H690     H      0.663360000000     0.118610000000     0.816590000000     0.0371279  
H691     H      0.659530000000     0.197970000000     0.849840000000     0.0372321  
H692     H      0.684270000000     0.224090000000     0.824040000000     0.0374427  
H693     H      0.615780000000     0.115470000000     0.832280000000     0.0516676  
H694     H      0.591190000000     0.089850000000     0.857970000000     0.027526   
H695     H      0.643410000000     0.135200000000     0.899460000000     0.0245163  
H696     H      0.668720000000     0.160740000000     0.874010000000     0.0515171  
H697     H      0.590460000000     0.002100000000     0.532640000000     0.0250894  
H698     H      0.615450000000     0.476930000000     0.558360000000     0.0516873  
H699     H      0.666890000000     0.430040000000     0.516600000000     0.0518497  
H700     H      0.641200000000     0.455150000000     0.991140000000     0.0245052  
H701     H      0.663610000000     0.474360000000     0.573370000000     0.0370731  
H702     H      0.689390000000     0.449230000000     0.599160000000     0.0371354  
H703     H      0.684370000000     0.368650000000     0.567280000000     0.0370577  
H704     H      0.658580000000     0.393770000000     0.541500000000     0.0371154  
H705     H      0.681130000000     0.412970000000     0.624070000000     0.0510926  
H706     H      0.706760000000     0.387770000000     0.649520000000     0.0226844  
H707     H      0.757430000000     0.340790000000     0.607990000000     0.0274967  
H708     H      0.732500000000     0.366050000000     0.582290000000     0.0518182  
H709     H      0.840380000000     0.251990000000     0.607980000000     0.0273575  
H710     H      0.865670000000     0.227070000000     0.582270000000     0.0513772  
H711     H      0.915950000000     0.179060000000     0.624090000000     0.0508863  
H712     H      0.890700000000     0.204670000000     0.649530000000     0.0226026  
H713     H      0.869920000000     0.179030000000     0.567760000000     0.0367593  
H714     H      0.895690000000     0.153960000000     0.541940000000     0.0369422  
H715     H      0.977280000000     0.163120000000     0.572900000000     0.0367959  
H716     H      0.951510000000     0.188190000000     0.598710000000     0.0365274  
H717     H      0.931230000000     0.163120000000     0.516570000000     0.051674   
H718     H      0.956580000000     0.137650000000     0.991120000000     0.0244543  
H719     H      0.506970000000     0.090350000000     0.532630000000     0.0272423  
H720     H      0.981590000000     0.115130000000     0.558340000000     0.0513415  
H721     H      0.841430000000     0.339580000000     0.782640000000     0.0277744  
H722     H      0.866400000000     0.364790000000     0.808350000000     0.0518214  
H723     H      0.918240000000     0.411250000000     0.766600000000     0.0519666  
H724     H      0.893290000000     0.385370000000     0.741160000000     0.0272736  
H725     H      0.870160000000     0.413360000000     0.822170000000     0.036949   
H726     H      0.894960000000     0.439500000000     0.847930000000     0.0370548  
H727     H      0.977650000000     0.429190000000     0.818410000000     0.037111   
H728     H      0.952850000000     0.403060000000     0.792650000000     0.0376273  
H729     H      0.929540000000     0.431340000000     0.873980000000     0.0516971  
H730     H      0.954450000000     0.457260000000     0.899430000000     0.024616   
H731     H      0.506370000000     0.002980000000     0.857950000000     0.0252174  
H732     H      0.981440000000     0.477750000000     0.832230000000     0.0519921  
H733     H      0.506260000000     0.089560000000     0.857970000000     0.027683   
H734     H      0.981300000000     0.114770000000     0.832250000000     0.0519501  
H735     H      0.929440000000     0.161230000000     0.873990000000     0.0519552  
H736     H      0.954370000000     0.135340000000     0.899430000000     0.0270833  
H737     H      0.977550000000     0.163340000000     0.818430000000     0.0372796  
H738     H      0.952760000000     0.189510000000     0.792670000000     0.037245   
H739     H      0.870060000000     0.179190000000     0.822170000000     0.0372448  
H740     H      0.894850000000     0.153040000000     0.847930000000     0.0375789  
H741     H      0.918180000000     0.181360000000     0.766610000000     0.0516996  
H742     H      0.893270000000     0.207300000000     0.741180000000     0.0246873  
H743     H      0.841350000000     0.253000000000     0.782660000000     0.02775    
H744     H      0.866280000000     0.227760000000     0.808370000000     0.0519633  
H745     H      0.591470000000     0.003090000000     0.857980000000     0.0251989  
H746     H      0.616420000000     0.477880000000     0.832270000000     0.0517135  
H747     H      0.668270000000     0.431420000000     0.874010000000     0.0518651  
H748     H      0.643320000000     0.457310000000     0.899460000000     0.0271166  
H749     H      0.620160000000     0.429300000000     0.818450000000     0.0368896  
H750     H      0.644950000000     0.403140000000     0.792680000000     0.0370199  
H751     H      0.727660000000     0.413450000000     0.822190000000     0.0369555  
H752     H      0.702870000000     0.439610000000     0.847960000000     0.0374404  
H753     H      0.679520000000     0.411280000000     0.766630000000     0.0517026  
H754     H      0.704420000000     0.385360000000     0.741190000000     0.0246816  
H755     H      0.756350000000     0.339640000000     0.782670000000     0.0275973  
H756     H      0.731420000000     0.364890000000     0.808370000000     0.0517357  
H757     H      0.956790000000     0.454830000000     0.991090000000     0.0201771  
H758     H      0.931160000000     0.429630000000     0.516550000000     0.0511565  
H759     H      0.982500000000     0.476580000000     0.558320000000     0.0519444  
H760     H      0.507430000000     0.001840000000     0.532630000000     0.0250368  
H761     H      0.939410000000     0.393380000000     0.541460000000     0.0371404  
H762     H      0.913620000000     0.368280000000     0.567250000000     0.0371455  
H763     H      0.908560000000     0.448870000000     0.599100000000     0.0371728  
H764     H      0.934350000000     0.473980000000     0.573310000000     0.0370788  
H765     H      0.865450000000     0.365700000000     0.582250000000     0.0516549  
H766     H      0.840460000000     0.340540000000     0.607980000000     0.0275585  
H767     H      0.891180000000     0.387530000000     0.649480000000     0.0270583  
H768     H      0.916860000000     0.412630000000     0.624010000000     0.0519007  
N81      N      0.613600000000     0.112290000000     0.509870000000    -0.189771   
N82      N      0.733740000000     0.230620000000     0.630750000000    -0.189477   
N83      N      0.732330000000     0.232100000000     0.759910000000    -0.188969   
N84      N      0.615300000000     0.110590000000     0.880710000000    -0.189092   
N85      N      0.613900000000     0.480630000000     0.509890000000    -0.189211   
N86      N      0.734020000000     0.362250000000     0.630750000000    -0.189828   
N87      N      0.863620000000     0.230360000000     0.630750000000    -0.189845   
N88      N      0.983710000000     0.111990000000     0.509870000000    -0.189349   
N89      N      0.865360000000     0.360530000000     0.759890000000    -0.189079   
N90      N      0.982410000000     0.482060000000     0.880690000000    -0.189216   
N91      N      0.982310000000     0.110500000000     0.880710000000    -0.189334   
N92      N      0.865310000000     0.232090000000     0.759920000000    -0.188968   
N93      N      0.615390000000     0.482140000000     0.880720000000    -0.18913    
N94      N      0.732390000000     0.360560000000     0.759920000000    -0.189105   
N95      N      0.984030000000     0.480360000000     0.509860000000    -0.189839   
N96      N      0.863880000000     0.362020000000     0.630730000000    -0.189298   
O321     O      0.991070000000     0.488920000000     0.977730000000    -0.364588   
O322     O      0.517770000000     0.014170000000     0.999910000000    -0.357      
O323     O      0.608270000000     0.490580000000     0.912860000000    -0.359286   
O324     O      0.580520000000     0.014760000000     0.890710000000    -0.355897   
O325     O      0.606830000000     0.489120000000     0.977750000000    -0.361308   
O326     O      0.579960000000     0.014230000000     0.999910000000    -0.356585   
O327     O      0.989530000000     0.490510000000     0.912820000000    -0.354553   
O328     O      0.517200000000     0.014770000000     0.890680000000    -0.355784   
O329     O      0.510790000000     0.451690000000     0.944290000000    -0.340578   
O330     O      0.952630000000     0.497630000000     0.945880000000    -0.513178   
O331     O      0.585930000000     0.452150000000     0.944790000000    -0.513481   
O332     O      0.645360000000     0.496860000000     0.945780000000    -0.327621   
O333     O      0.548750000000     0.499730000000     0.964420000000    -0.469329   
O334     O      0.548760000000     0.499900000000     0.926330000000    -0.610949   
O335     O      0.989420000000     0.102060000000     0.912840000000    -0.359233   
O336     O      0.517190000000     0.077890000000     0.890700000000    -0.353595   
O337     O      0.606570000000     0.103720000000     0.977740000000    -0.364827   
O338     O      0.579870000000     0.078480000000     0.999920000000    -0.354833   
O339     O      0.608160000000     0.102120000000     0.912840000000    -0.354897   
O340     O      0.580500000000     0.077870000000     0.890690000000    -0.353496   
O341     O      0.990800000000     0.103510000000     0.977730000000    -0.361068   
O342     O      0.517670000000     0.078410000000     0.999910000000    -0.354301   
O343     O      0.511750000000     0.140480000000     0.944780000000    -0.513682   
O344     O      0.952320000000     0.095780000000     0.945760000000    -0.327537   
O345     O      0.586880000000     0.140950000000     0.944300000000    -0.340755   
O346     O      0.645040000000     0.095010000000     0.945910000000    -0.513172   
O347     O      0.548910000000     0.092740000000     0.926340000000    -0.610681   
O348     O      0.548910000000     0.092910000000     0.964420000000    -0.469094   
O349     O      0.500990000000     0.046410000000     0.924730000000    -0.475257   
O350     O      0.596420000000     0.046250000000     0.965640000000    -0.623796   
O351     O      0.501230000000     0.046390000000     0.965630000000    -0.624064   
O352     O      0.596690000000     0.046230000000     0.924750000000    -0.47534    
O353     O      0.741040000000     0.353690000000     0.662880000000    -0.364751   
O354     O      0.767760000000     0.328450000000     0.640700000000    -0.354294   
O355     O      0.858240000000     0.352080000000     0.727760000000    -0.359233   
O356     O      0.830490000000     0.327900000000     0.749910000000    -0.353614   
O357     O      0.856810000000     0.353540000000     0.662870000000    -0.361381   
O358     O      0.829960000000     0.328420000000     0.640700000000    -0.353997   
O359     O      0.739500000000     0.352100000000     0.727790000000    -0.354717   
O360     O      0.767180000000     0.327850000000     0.749940000000    -0.353498   
O361     O      0.760730000000     0.390930000000     0.696320000000    -0.340586   
O362     O      0.702600000000     0.344950000000     0.694730000000    -0.513404   
O363     O      0.835870000000     0.390500000000     0.695820000000    -0.514046   
O364     O      0.895320000000     0.345840000000     0.694840000000    -0.327194   
O365     O      0.798720000000     0.342910000000     0.676190000000    -0.469144   
O366     O      0.798740000000     0.342740000000     0.714280000000    -0.610732   
O367     O      0.739440000000     0.240550000000     0.727770000000    -0.359106   
O368     O      0.767190000000     0.264730000000     0.749920000000    -0.353621   
O369     O      0.856600000000     0.238940000000     0.662870000000    -0.36507    
O370     O      0.829880000000     0.264170000000     0.640700000000    -0.35461    
O371     O      0.858180000000     0.240540000000     0.727780000000    -0.354393   
O372     O      0.830500000000     0.264790000000     0.749940000000    -0.353327   
O373     O      0.740840000000     0.239090000000     0.662870000000    -0.361655   
O374     O      0.767680000000     0.264210000000     0.640710000000    -0.354195   
O375     O      0.761800000000     0.202140000000     0.695830000000    -0.513517   
O376     O      0.702340000000     0.246800000000     0.694860000000    -0.327392   
O377     O      0.836940000000     0.201710000000     0.696330000000    -0.340556   
O378     O      0.895070000000     0.247690000000     0.694710000000    -0.513453   
O379     O      0.798930000000     0.249900000000     0.714290000000    -0.610841   
O380     O      0.798930000000     0.249720000000     0.676200000000    -0.469407   
O381     O      0.750980000000     0.296200000000     0.715880000000    -0.475117   
O382     O      0.846420000000     0.296410000000     0.674980000000    -0.624482   
O383     O      0.751230000000     0.296230000000     0.674990000000    -0.624418   
O384     O      0.846690000000     0.296430000000     0.715870000000    -0.47518    
Zr61     Zr     0.505020000000     0.004440000000     0.945270000000     1.28737    
Zr62     Zr     0.592500000000     0.004280000000     0.945300000000     1.28794    
Zr63     Zr     0.505160000000     0.088360000000     0.945280000000     1.29422    
Zr64     Zr     0.592650000000     0.088200000000     0.945280000000     1.2938     
Zr65     Zr     0.548830000000     0.046320000000     0.981250000000     1.27037    
Zr66     Zr     0.548850000000     0.046320000000     0.909370000000     1.26764    
Zr67     Zr     0.754990000000     0.338180000000     0.695340000000     1.29395    
Zr68     Zr     0.842480000000     0.338380000000     0.695320000000     1.29442    
Zr69     Zr     0.755190000000     0.254260000000     0.695320000000     1.29427    
Zr70     Zr     0.842670000000     0.254460000000     0.695330000000     1.29381    
Zr71     Zr     0.798830000000     0.296310000000     0.659360000000     1.27175    
Zr72     Zr     0.798840000000     0.296320000000     0.731250000000     1.26835    
C865     C      0.998200000000     0.994950000000     0.495320000000     0.385328   
C866     C      0.600910000000     0.996390000000     0.395270000000     0.385777   
C867     C      0.599660000000     0.995120000000     0.495340000000     0.383719   
C868     C      0.996860000000     0.996350000000     0.395240000000     0.387434   
C869     C      0.996780000000     0.596250000000     0.395260000000     0.383698   
C870     C      0.599440000000     0.597690000000     0.495330000000     0.382203   
C871     C      0.600850000000     0.596300000000     0.395260000000     0.384454   
C872     C      0.997970000000     0.597500000000     0.495320000000     0.381685   
C873     C      0.748180000000     0.847670000000     0.145290000000     0.382308   
C874     C      0.850890000000     0.846270000000     0.245340000000     0.383223   
C875     C      0.849640000000     0.847530000000     0.145280000000     0.381362   
C876     C      0.746830000000     0.846270000000     0.245370000000     0.384302   
C877     C      0.746800000000     0.746360000000     0.245350000000     0.383205   
C878     C      0.849460000000     0.744960000000     0.145290000000     0.382469   
C879     C      0.850850000000     0.746380000000     0.245360000000     0.384189   
C880     C      0.747990000000     0.745110000000     0.145290000000     0.381858   
C881     C      0.606890000000     0.606570000000     0.028730000000     0.0701874  
C882     C      0.621260000000     0.620980000000     0.043670000000    -0.092814   
C883     C      0.642950000000     0.641660000000     0.039590000000     0.0487956  
C884     C      0.649580000000     0.647470000000     0.020350000000    -0.0940575  
C885     C      0.634770000000     0.632710000000     0.005750000000     0.0719285  
C886     C      0.658650000000     0.657020000000     0.055320000000    -0.00724723 
C887     C      0.643410000000     0.666710000000     0.071650000000    -0.0356387  
C888     C      0.658180000000     0.681070000000     0.086450000000    -0.036043   
C889     C      0.688560000000     0.686080000000     0.085280000000    -0.00677247 
C890     C      0.703810000000     0.676400000000     0.068930000000    -0.0360895  
C891     C      0.689020000000     0.662040000000     0.054140000000    -0.0356302  
C892     C      0.704270000000     0.701400000000     0.101010000000     0.047862   
C893     C      0.697640000000     0.695580000000     0.120240000000    -0.0919791  
C894     C      0.712510000000     0.710260000000     0.134840000000     0.0676533  
C895     C      0.740430000000     0.736380000000     0.111880000000     0.0695663  
C896     C      0.726010000000     0.722050000000     0.096940000000    -0.0923557  
C897     C      0.710660000000     0.712200000000     0.255810000000     0.068336   
C898     C      0.696050000000     0.697240000000     0.270410000000    -0.091766   
C899     C      0.703320000000     0.702410000000     0.289630000000     0.0481906  
C900     C      0.725270000000     0.722830000000     0.293690000000    -0.0921716  
C901     C      0.739470000000     0.737390000000     0.278760000000     0.0702698  
C902     C      0.688160000000     0.686510000000     0.305350000000    -0.00664439 
C903     C      0.681750000000     0.656660000000     0.303530000000    -0.0358481  
C904     C      0.667580000000     0.641690000000     0.318330000000    -0.0356934  
C905     C      0.659470000000     0.656200000000     0.335280000000    -0.00687078 
C906     C      0.665880000000     0.686040000000     0.337090000000    -0.0357118  
C907     C      0.680060000000     0.701010000000     0.322300000000    -0.0357377  
C908     C      0.644320000000     0.640290000000     0.351000000000     0.0487533  
C909     C      0.622350000000     0.619890000000     0.346920000000    -0.092491   
C910     C      0.608150000000     0.605310000000     0.361860000000     0.0707604  
C911     C      0.636970000000     0.630470000000     0.384810000000     0.070781   
C912     C      0.651580000000     0.645440000000     0.370220000000    -0.0927431  
C913     C      0.607160000000     0.986350000000     0.028740000000     0.0736972  
C914     C      0.621600000000     0.972050000000     0.043700000000    -0.0937188  
C915     C      0.643330000000     0.951400000000     0.039640000000     0.0493451  
C916     C      0.649990000000     0.945590000000     0.020400000000    -0.0933288  
C917     C      0.635160000000     0.960310000000     0.005790000000     0.0717952  
C918     C      0.659030000000     0.936070000000     0.055370000000    -0.00693244 
C919     C      0.667780000000     0.951220000000     0.071940000000    -0.0355571  
C920     C      0.682560000000     0.936830000000     0.086720000000    -0.0356234  
C921     C      0.688950000000     0.906930000000     0.085290000000    -0.00683096 
C922     C      0.680200000000     0.891780000000     0.068720000000    -0.0357334  
C923     C      0.665410000000     0.906180000000     0.053930000000    -0.0355427  
C924     C      0.704650000000     0.891600000000     0.101020000000     0.0483511  
C925     C      0.698010000000     0.897400000000     0.120260000000    -0.0928027  
C926     C      0.712810000000     0.882620000000     0.134860000000     0.0685105  
C927     C      0.740760000000     0.856570000000     0.111890000000     0.0700827  
C928     C      0.726370000000     0.870930000000     0.096950000000    -0.0925773  
C929     C      0.856900000000     0.736060000000     0.111880000000     0.0696875  
C930     C      0.871270000000     0.721650000000     0.096950000000    -0.0926523  
C931     C      0.892960000000     0.700980000000     0.101030000000     0.0482048  
C932     C      0.899600000000     0.695180000000     0.120270000000    -0.0928876  
C933     C      0.884790000000     0.709950000000     0.134870000000     0.0683706  
C934     C      0.908650000000     0.685610000000     0.085310000000    -0.00701555 
C935     C      0.893400000000     0.675910000000     0.068980000000    -0.0357675  
C936     C      0.908170000000     0.661540000000     0.054180000000    -0.0358351  
C937     C      0.938550000000     0.656530000000     0.055340000000    -0.0070197  
C938     C      0.953800000000     0.666230000000     0.071680000000    -0.0358228  
C939     C      0.939030000000     0.680600000000     0.086480000000    -0.0359483  
C940     C      0.954250000000     0.641210000000     0.039610000000     0.0486387  
C941     C      0.947610000000     0.647030000000     0.020380000000    -0.0930983  
C942     C      0.962470000000     0.632330000000     0.005770000000     0.0712608  
C943     C      0.990410000000     0.606240000000     0.028730000000     0.0705359  
C944     C      0.975990000000     0.620570000000     0.043680000000    -0.0928038  
C945     C      0.858250000000     0.855200000000     0.278750000000     0.0703622  
C946     C      0.872430000000     0.869770000000     0.293680000000    -0.092164   
C947     C      0.894380000000     0.890210000000     0.289630000000     0.0482358  
C948     C      0.901630000000     0.895380000000     0.270410000000    -0.0916723  
C949     C      0.887000000000     0.880450000000     0.255810000000     0.0685813  
C950     C      0.909530000000     0.906100000000     0.305350000000    -0.00649598 
C951     C      0.893670000000     0.916440000000     0.321260000000    -0.0358371  
C952     C      0.907890000000     0.931440000000     0.336030000000    -0.0353772  
C953     C      0.938290000000     0.936450000000     0.335240000000    -0.00705544 
C954     C      0.954140000000     0.926100000000     0.319320000000    -0.035351   
C955     C      0.939920000000     0.911120000000     0.304560000000    -0.0356528  
C956     C      0.953430000000     0.952350000000     0.350960000000     0.0497329  
C957     C      0.946160000000     0.947200000000     0.370170000000    -0.0931504  
C958     C      0.960770000000     0.962140000000     0.384770000000     0.071393   
C959     C      0.989550000000     0.987360000000     0.361840000000     0.0748973  
C960     C      0.975390000000     0.972770000000     0.346900000000    -0.0939743  
C961     C      0.989430000000     0.605180000000     0.361850000000     0.0709304  
C962     C      0.975260000000     0.619760000000     0.346910000000    -0.0924322  
C963     C      0.953320000000     0.640190000000     0.350970000000     0.0484909  
C964     C      0.946040000000     0.645360000000     0.370180000000    -0.0918712  
C965     C      0.960670000000     0.630430000000     0.384790000000     0.0685671  
C966     C      0.938180000000     0.656090000000     0.335250000000    -0.00658944 
C967     C      0.954040000000     0.666430000000     0.319340000000    -0.0358079  
C968     C      0.939820000000     0.681440000000     0.304570000000    -0.0355032  
C969     C      0.909430000000     0.686450000000     0.305360000000    -0.00679034 
C970     C      0.893570000000     0.676100000000     0.321270000000    -0.0355165  
C971     C      0.907770000000     0.661100000000     0.336030000000    -0.0357098  
C972     C      0.894290000000     0.702370000000     0.289640000000     0.0488548  
C973     C      0.901580000000     0.697220000000     0.270420000000    -0.0926729  
C974     C      0.886950000000     0.712170000000     0.255820000000     0.070716   
C975     C      0.858180000000     0.737390000000     0.278760000000     0.0709528  
C976     C      0.872340000000     0.722790000000     0.293700000000    -0.0924072  
C977     C      0.608280000000     0.987470000000     0.361870000000     0.0739067  
C978     C      0.622450000000     0.972890000000     0.346930000000    -0.0935038  
C979     C      0.644400000000     0.952460000000     0.350980000000     0.0488395  
C980     C      0.651670000000     0.947280000000     0.370210000000    -0.0921278  
C981     C      0.637030000000     0.962220000000     0.384810000000     0.0688977  
C982     C      0.659530000000     0.936560000000     0.335270000000    -0.00687831 
C983     C      0.643680000000     0.926210000000     0.319360000000    -0.0357093  
C984     C      0.657880000000     0.911210000000     0.304590000000    -0.0356523  
C985     C      0.688280000000     0.906190000000     0.305380000000    -0.00685829 
C986     C      0.704140000000     0.916540000000     0.321280000000    -0.0355946  
C987     C      0.689940000000     0.931540000000     0.336050000000    -0.0356352  
C988     C      0.703420000000     0.890280000000     0.289650000000     0.0487648  
C989     C      0.696130000000     0.895430000000     0.270430000000    -0.0927075  
C990     C      0.710740000000     0.880480000000     0.255830000000     0.0706892  
C991     C      0.739530000000     0.855260000000     0.278770000000     0.0708162  
C992     C      0.725370000000     0.869860000000     0.293710000000    -0.0925279  
C993     C      0.962830000000     0.959980000000     0.005750000000     0.0726154  
C994     C      0.948040000000     0.945210000000     0.020350000000    -0.0943209  
C995     C      0.954660000000     0.951020000000     0.039590000000     0.0497208  
C996     C      0.976370000000     0.971690000000     0.043660000000    -0.0940447  
C997     C      0.990770000000     0.986060000000     0.028720000000     0.0743253  
C998     C      0.938960000000     0.935690000000     0.055320000000    -0.00722559 
C999     C      0.932580000000     0.905800000000     0.053890000000    -0.0353632  
C1000    C      0.917780000000     0.891410000000     0.068670000000    -0.0358843  
C1001    C      0.909020000000     0.906570000000     0.085250000000    -0.00650912 
C1002    C      0.915400000000     0.936460000000     0.086670000000    -0.0357872  
C1003    C      0.930190000000     0.950850000000     0.071890000000    -0.0354035  
C1004    C      0.893320000000     0.891250000000     0.100980000000     0.0479457  
C1005    C      0.871580000000     0.870600000000     0.096920000000    -0.0920761  
C1006    C      0.857150000000     0.856290000000     0.111870000000     0.0697732  
C1007    C      0.885130000000     0.882350000000     0.134830000000     0.0676879  
C1008    C      0.899960000000     0.897070000000     0.120220000000    -0.0917049  
H769     H      0.548750000000     0.983050000000     0.418030000000     0.210005   
H770     H      0.613380000000     0.546270000000     0.473960000000     0.204063   
H771     H      0.548930000000     0.609590000000     0.418030000000     0.20985    
H772     H      0.984280000000     0.546370000000     0.473940000000     0.204824   
H773     H      0.653580000000     0.516690000000     0.447310000000     0.125492   
H774     H      0.657860000000     0.578350000000     0.447210000000     0.185442   
H775     H      0.576440000000     0.645970000000     0.456300000000     0.148397   
H776     H      0.510960000000     0.650970000000     0.432780000000     0.199922   
H777     H      0.944080000000     0.575950000000     0.447250000000     0.125522   
H778     H      0.939810000000     0.514280000000     0.447180000000     0.18566    
H779     H      0.521220000000     0.946670000000     0.456300000000     0.148269   
H780     H      0.586710000000     0.941680000000     0.432780000000     0.199632   
H781     H      0.515460000000     0.650890000000     0.456590000000     0.202889   
H782     H      0.944460000000     0.978260000000     0.444890000000     0.202538   
H783     H      0.582200000000     0.941740000000     0.456590000000     0.20285    
H784     H      0.653210000000     0.614380000000     0.444930000000     0.202966   
H785     H      0.798710000000     0.859590000000     0.222590000000     0.209847   
H786     H      0.863370000000     0.796400000000     0.166660000000     0.204321   
H787     H      0.798960000000     0.733050000000     0.222590000000     0.210045   
H788     H      0.734280000000     0.796240000000     0.166670000000     0.204315   
H789     H      0.903570000000     0.826010000000     0.193290000000     0.125297   
H790     H      0.907870000000     0.764360000000     0.193420000000     0.185637   
H791     H      0.826490000000     0.696680000000     0.184320000000     0.148036   
H792     H      0.761040000000     0.691660000000     0.207840000000     0.199825   
H793     H      0.694090000000     0.766630000000     0.193360000000     0.125441   
H794     H      0.689790000000     0.828290000000     0.193430000000     0.185587   
H795     H      0.771170000000     0.895960000000     0.184320000000     0.148417   
H796     H      0.836640000000     0.900980000000     0.207840000000     0.199664   
H797     H      0.765510000000     0.691730000000     0.184020000000     0.202994   
H798     H      0.694410000000     0.864320000000     0.195720000000     0.202925   
H799     H      0.832150000000     0.900900000000     0.184020000000     0.203289   
H800     H      0.903250000000     0.728330000000     0.195690000000     0.203171   
H801     H      0.590370000000     0.590650000000     0.032650000000     0.0278422  
H802     H      0.615670000000     0.615550000000     0.058350000000     0.0515351  
H803     H      0.665920000000     0.663590000000     0.016540000000     0.0518788  
H804     H      0.640660000000     0.637990000000     0.491100000000     0.0226443  
H805     H      0.619930000000     0.663580000000     0.072870000000     0.0368874  
H806     H      0.645710000000     0.688650000000     0.098700000000     0.0370488  
H807     H      0.727280000000     0.679510000000     0.067710000000     0.036971   
H808     H      0.701500000000     0.654450000000     0.041890000000     0.0366839  
H809     H      0.681270000000     0.679480000000     0.124050000000     0.0516939  
H810     H      0.706620000000     0.704950000000     0.149510000000     0.0269643  
H811     H      0.756990000000     0.752270000000     0.107980000000     0.0274587  
H812     H      0.731600000000     0.727500000000     0.082270000000     0.051464   
H813     H      0.704240000000     0.707440000000     0.241170000000     0.0272943  
H814     H      0.678930000000     0.681920000000     0.266620000000     0.0520278  
H815     H      0.731830000000     0.727270000000     0.308340000000     0.0516867  
H816     H      0.756420000000     0.752870000000     0.282640000000     0.0277655  
H817     H      0.688110000000     0.644730000000     0.290790000000     0.0370791  
H818     H      0.663360000000     0.618620000000     0.316590000000     0.037396   
H819     H      0.659530000000     0.697970000000     0.349840000000     0.0372976  
H820     H      0.684270000000     0.724090000000     0.324040000000     0.0374712  
H821     H      0.615780000000     0.615470000000     0.332280000000     0.0518766  
H822     H      0.591190000000     0.589850000000     0.357960000000     0.0276487  
H823     H      0.643410000000     0.635200000000     0.399460000000     0.0246648  
H824     H      0.668720000000     0.660750000000     0.374010000000     0.0516386  
H825     H      0.590460000000     0.502100000000     0.032640000000     0.0280464  
H826     H      0.615450000000     0.976930000000     0.058360000000     0.0526401  
H827     H      0.666890000000     0.930040000000     0.016600000000     0.0529177  
H828     H      0.641200000000     0.955150000000     0.491140000000     0.0270953  
H829     H      0.663610000000     0.974350000000     0.073370000000     0.0375018  
H830     H      0.689390000000     0.949230000000     0.099170000000     0.0373508  
H831     H      0.684370000000     0.868650000000     0.067280000000     0.0372055  
H832     H      0.658580000000     0.893770000000     0.041490000000     0.037346   
H833     H      0.681130000000     0.912970000000     0.124060000000     0.0512683  
H834     H      0.706760000000     0.887770000000     0.149520000000     0.0227653  
H835     H      0.757430000000     0.840790000000     0.107990000000     0.02755    
H836     H      0.732500000000     0.866050000000     0.082290000000     0.0520004  
H837     H      0.840380000000     0.751990000000     0.107980000000     0.0274447  
H838     H      0.865670000000     0.727070000000     0.082280000000     0.0515786  
H839     H      0.915950000000     0.679070000000     0.124090000000     0.0510535  
H840     H      0.890700000000     0.704670000000     0.149530000000     0.0226562  
H841     H      0.869920000000     0.679030000000     0.067760000000     0.0369877  
H842     H      0.895690000000     0.653950000000     0.041940000000     0.0372358  
H843     H      0.977280000000     0.663120000000     0.072900000000     0.0368933  
H844     H      0.951510000000     0.688190000000     0.098710000000     0.0366256  
H845     H      0.931230000000     0.663120000000     0.016570000000     0.0525764  
H846     H      0.956580000000     0.637650000000     0.491120000000     0.027015   
H847     H      0.506970000000     0.590350000000     0.032630000000     0.0279152  
H848     H      0.981590000000     0.615130000000     0.058350000000     0.0516284  
H849     H      0.841430000000     0.839570000000     0.282640000000     0.0277857  
H850     H      0.866400000000     0.864790000000     0.308350000000     0.0518289  
H851     H      0.918240000000     0.911250000000     0.266600000000     0.0521352  
H852     H      0.893290000000     0.885360000000     0.241160000000     0.0273496  
H853     H      0.870160000000     0.913360000000     0.322170000000     0.0371121  
H854     H      0.894960000000     0.939500000000     0.347930000000     0.0372781  
H855     H      0.977650000000     0.929200000000     0.318410000000     0.0372036  
H856     H      0.952850000000     0.903060000000     0.292640000000     0.0376733  
H857     H      0.929540000000     0.931340000000     0.373980000000     0.051929   
H858     H      0.954450000000     0.957260000000     0.399420000000     0.0247725  
H859     H      0.506370000000     0.502990000000     0.357950000000     0.0276879  
H860     H      0.981440000000     0.977750000000     0.332240000000     0.0528944  
H861     H      0.506260000000     0.589560000000     0.357960000000     0.0278334  
H862     H      0.981300000000     0.614770000000     0.332250000000     0.0521291  
H863     H      0.929440000000     0.661220000000     0.373990000000     0.052098   
H864     H      0.954370000000     0.635330000000     0.399430000000     0.0272478  
H865     H      0.977550000000     0.663340000000     0.318430000000     0.0373265  
H866     H      0.952760000000     0.689510000000     0.292670000000     0.0372798  
H867     H      0.870060000000     0.679190000000     0.322170000000     0.0373568  
H868     H      0.894850000000     0.653030000000     0.347930000000     0.0377493  
H869     H      0.918180000000     0.681360000000     0.266610000000     0.0518048  
H870     H      0.893270000000     0.707290000000     0.241180000000     0.0247396  
H871     H      0.841350000000     0.753000000000     0.282660000000     0.0277401  
H872     H      0.866280000000     0.727760000000     0.308370000000     0.05202    
H873     H      0.591470000000     0.503090000000     0.357970000000     0.0276561  
H874     H      0.616420000000     0.977880000000     0.332260000000     0.0524702  
H875     H      0.668270000000     0.931420000000     0.374010000000     0.0521121  
H876     H      0.643320000000     0.957310000000     0.399460000000     0.0272651  
H877     H      0.620160000000     0.929300000000     0.318450000000     0.0369871  
H878     H      0.644950000000     0.903140000000     0.292680000000     0.0371016  
H879     H      0.727660000000     0.913450000000     0.322180000000     0.0371237  
H880     H      0.702870000000     0.939610000000     0.347960000000     0.0376667  
H881     H      0.679520000000     0.911280000000     0.266630000000     0.0518316  
H882     H      0.704420000000     0.885360000000     0.241190000000     0.0247819  
H883     H      0.756350000000     0.839650000000     0.282660000000     0.0276023  
H884     H      0.731420000000     0.864890000000     0.308380000000     0.0517246  
H885     H      0.956790000000     0.954830000000     0.491100000000     0.022738   
H886     H      0.931160000000     0.929630000000     0.016550000000     0.0521841  
H887     H      0.982500000000     0.976580000000     0.058330000000     0.0528076  
H888     H      0.507430000000     0.501840000000     0.032630000000     0.0280005  
H889     H      0.939410000000     0.893380000000     0.041450000000     0.0373118  
H890     H      0.913620000000     0.868280000000     0.067250000000     0.0373179  
H891     H      0.908560000000     0.948870000000     0.099100000000     0.0374697  
H892     H      0.934350000000     0.973980000000     0.073310000000     0.0374583  
H893     H      0.865450000000     0.865700000000     0.082250000000     0.0517924  
H894     H      0.840460000000     0.840540000000     0.107980000000     0.0276306  
H895     H      0.891180000000     0.887530000000     0.149480000000     0.0271526  
H896     H      0.916860000000     0.912630000000     0.124010000000     0.0520196  
N97      N      0.613600000000     0.612290000000     0.009870000000    -0.188923   
N98      N      0.733740000000     0.730620000000     0.130750000000    -0.189401   
N99      N      0.732330000000     0.732100000000     0.259900000000    -0.189065   
N100     N      0.615300000000     0.610590000000     0.380710000000    -0.189085   
N101     N      0.613900000000     0.980630000000     0.009880000000    -0.189311   
N102     N      0.734020000000     0.862250000000     0.130750000000    -0.189837   
N103     N      0.863620000000     0.730350000000     0.130750000000    -0.189716   
N104     N      0.983710000000     0.611990000000     0.009870000000    -0.188413   
N105     N      0.865360000000     0.860530000000     0.259890000000    -0.189114   
N106     N      0.982410000000     0.982060000000     0.380690000000    -0.189935   
N107     N      0.982310000000     0.610500000000     0.380710000000    -0.189259   
N108     N      0.865310000000     0.732090000000     0.259920000000    -0.188916   
N109     N      0.615390000000     0.982140000000     0.380720000000    -0.189908   
N110     N      0.732390000000     0.860560000000     0.259930000000    -0.188992   
N111     N      0.984030000000     0.980360000000     0.009860000000    -0.189817   
N112     N      0.863880000000     0.862020000000     0.130730000000    -0.189243   
O385     O      0.991070000000     0.988920000000     0.477730000000    -0.363947   
O386     O      0.517770000000     0.514170000000     0.499920000000    -0.354227   
O387     O      0.608270000000     0.990580000000     0.412860000000    -0.35846    
O388     O      0.580520000000     0.514750000000     0.390710000000    -0.353778   
O389     O      0.606830000000     0.989110000000     0.477750000000    -0.36046    
O390     O      0.579960000000     0.514230000000     0.499920000000    -0.353769   
O391     O      0.989530000000     0.990510000000     0.412820000000    -0.353823   
O392     O      0.517200000000     0.514770000000     0.390670000000    -0.353445   
O393     O      0.510790000000     0.951690000000     0.444290000000    -0.339596   
O394     O      0.952630000000     0.997630000000     0.445880000000    -0.509202   
O395     O      0.585930000000     0.952160000000     0.444790000000    -0.512894   
O396     O      0.645360000000     0.996860000000     0.445780000000    -0.324226   
O397     O      0.548750000000     0.999730000000     0.464420000000    -0.46663    
O398     O      0.548760000000     0.999900000000     0.426330000000    -0.608347   
O399     O      0.989420000000     0.602060000000     0.412840000000    -0.359164   
O400     O      0.517190000000     0.577890000000     0.390700000000    -0.353596   
O401     O      0.606570000000     0.603720000000     0.477740000000    -0.364816   
O402     O      0.579870000000     0.578470000000     0.499930000000    -0.354286   
O403     O      0.608160000000     0.602120000000     0.412840000000    -0.35484    
O404     O      0.580500000000     0.577870000000     0.390690000000    -0.353412   
O405     O      0.990800000000     0.603520000000     0.477740000000    -0.361174   
O406     O      0.517670000000     0.578400000000     0.499900000000    -0.354013   
O407     O      0.511750000000     0.640480000000     0.444780000000    -0.513964   
O408     O      0.952320000000     0.595780000000     0.445760000000    -0.32736    
O409     O      0.586880000000     0.640950000000     0.444300000000    -0.340639   
O410     O      0.645040000000     0.595010000000     0.445910000000    -0.513149   
O411     O      0.548910000000     0.592740000000     0.426340000000    -0.610827   
O412     O      0.548910000000     0.592910000000     0.464420000000    -0.469205   
O413     O      0.500990000000     0.546410000000     0.424730000000    -0.475264   
O414     O      0.596420000000     0.546250000000     0.465640000000    -0.62416    
O415     O      0.501230000000     0.546390000000     0.465630000000    -0.624496   
O416     O      0.596690000000     0.546230000000     0.424750000000    -0.475391   
O417     O      0.741040000000     0.853690000000     0.162880000000    -0.364726   
O418     O      0.767760000000     0.828450000000     0.140700000000    -0.35419    
O419     O      0.858240000000     0.852080000000     0.227760000000    -0.359213   
O420     O      0.830490000000     0.827900000000     0.249910000000    -0.353621   
O421     O      0.856810000000     0.853540000000     0.162870000000    -0.361349   
O422     O      0.829960000000     0.828420000000     0.140700000000    -0.353887   
O423     O      0.739500000000     0.852100000000     0.227790000000    -0.354652   
O424     O      0.767180000000     0.827850000000     0.249940000000    -0.353457   
O425     O      0.760730000000     0.890930000000     0.196320000000    -0.340453   
O426     O      0.702600000000     0.844950000000     0.194730000000    -0.513126   
O427     O      0.835870000000     0.890500000000     0.195820000000    -0.513829   
O428     O      0.895320000000     0.845840000000     0.194840000000    -0.32714    
O429     O      0.798720000000     0.842910000000     0.176190000000    -0.469174   
O430     O      0.798740000000     0.842740000000     0.214280000000    -0.610735   
O431     O      0.739440000000     0.740550000000     0.227770000000    -0.359183   
O432     O      0.767190000000     0.764730000000     0.249920000000    -0.35358    
O433     O      0.856600000000     0.738940000000     0.162870000000    -0.365004   
O434     O      0.829880000000     0.764170000000     0.140690000000    -0.354356   
O435     O      0.858180000000     0.740540000000     0.227780000000    -0.354567   
O436     O      0.830500000000     0.764790000000     0.249940000000    -0.35342    
O437     O      0.740840000000     0.739100000000     0.162870000000    -0.36171    
O438     O      0.767680000000     0.764210000000     0.140710000000    -0.354089   
O439     O      0.761800000000     0.702130000000     0.195830000000    -0.514066   
O440     O      0.702340000000     0.746800000000     0.194860000000    -0.327384   
O441     O      0.836940000000     0.701710000000     0.196330000000    -0.340252   
O442     O      0.895070000000     0.747690000000     0.194710000000    -0.513463   
O443     O      0.798930000000     0.749900000000     0.214290000000    -0.610871   
O444     O      0.798930000000     0.749720000000     0.176200000000    -0.469457   
O445     O      0.750980000000     0.796200000000     0.215880000000    -0.475066   
O446     O      0.846420000000     0.796410000000     0.174980000000    -0.624539   
O447     O      0.751230000000     0.796220000000     0.174990000000    -0.624391   
O448     O      0.846690000000     0.796430000000     0.215870000000    -0.475198   
Zr73     Zr     0.505020000000     0.504440000000     0.445270000000     1.29379    
Zr74     Zr     0.592500000000     0.504280000000     0.445290000000     1.29421    
Zr75     Zr     0.505160000000     0.588360000000     0.445280000000     1.29439    
Zr76     Zr     0.592650000000     0.588200000000     0.445280000000     1.29399    
Zr77     Zr     0.548830000000     0.546320000000     0.481250000000     1.27178    
Zr78     Zr     0.548850000000     0.546320000000     0.409370000000     1.26833    
Zr79     Zr     0.754990000000     0.838180000000     0.195340000000     1.2938     
Zr80     Zr     0.842480000000     0.838380000000     0.195320000000     1.29435    
Zr81     Zr     0.755190000000     0.754250000000     0.195320000000     1.29437    
Zr82     Zr     0.842670000000     0.754460000000     0.195330000000     1.29375    
Zr83     Zr     0.798830000000     0.796310000000     0.159370000000     1.2715     
Zr84     Zr     0.798840000000     0.796320000000     0.231250000000     1.26831    
C1009    C      0.998200000000     0.994950000000     0.995320000000     0.383413   
C1010    C      0.600910000000     0.996390000000     0.895280000000     0.38584    
C1011    C      0.599660000000     0.995120000000     0.995340000000     0.381986   
C1012    C      0.996860000000     0.996350000000     0.895240000000     0.387561   
C1013    C      0.996780000000     0.596250000000     0.895260000000     0.383693   
C1014    C      0.599440000000     0.597690000000     0.995330000000     0.380285   
C1015    C      0.600850000000     0.596300000000     0.895260000000     0.384439   
C1016    C      0.997970000000     0.597500000000     0.995320000000     0.379183   
C1017    C      0.748180000000     0.847670000000     0.645290000000     0.382345   
C1018    C      0.850890000000     0.846270000000     0.745340000000     0.383225   
C1019    C      0.849640000000     0.847530000000     0.645280000000     0.381407   
C1020    C      0.746830000000     0.846270000000     0.745370000000     0.38446    
C1021    C      0.746800000000     0.746360000000     0.745350000000     0.383079   
C1022    C      0.849460000000     0.744960000000     0.645290000000     0.382649   
C1023    C      0.850850000000     0.746380000000     0.745370000000     0.384092   
C1024    C      0.747990000000     0.745110000000     0.645290000000     0.381901   
C1025    C      0.606890000000     0.606570000000     0.528740000000     0.0696659  
C1026    C      0.621260000000     0.620980000000     0.543670000000    -0.0926535  
C1027    C      0.642950000000     0.641660000000     0.539590000000     0.0481451  
C1028    C      0.649580000000     0.647470000000     0.520350000000    -0.0928771  
C1029    C      0.634770000000     0.632710000000     0.505750000000     0.0682196  
C1030    C      0.658650000000     0.657020000000     0.555320000000    -0.0071562  
C1031    C      0.643410000000     0.666710000000     0.571650000000    -0.0357135  
C1032    C      0.658180000000     0.681070000000     0.586450000000    -0.0361603  
C1033    C      0.688560000000     0.686080000000     0.585270000000    -0.00672916 
C1034    C      0.703810000000     0.676400000000     0.568940000000    -0.0361723  
C1035    C      0.689020000000     0.662040000000     0.554140000000    -0.0357809  
C1036    C      0.704270000000     0.701400000000     0.601010000000     0.047798   
C1037    C      0.697640000000     0.695580000000     0.620240000000    -0.0919728  
C1038    C      0.712510000000     0.710260000000     0.634840000000     0.0676503  
C1039    C      0.740430000000     0.736380000000     0.611890000000     0.069634   
C1040    C      0.726010000000     0.722050000000     0.596940000000    -0.0923807  
C1041    C      0.710660000000     0.712200000000     0.755810000000     0.0682788  
C1042    C      0.696050000000     0.697240000000     0.770410000000    -0.0917311  
C1043    C      0.703320000000     0.702410000000     0.789630000000     0.0482051  
C1044    C      0.725270000000     0.722830000000     0.793690000000    -0.0922268  
C1045    C      0.739470000000     0.737390000000     0.778760000000     0.0704069  
C1046    C      0.688160000000     0.686510000000     0.805350000000    -0.00664789 
C1047    C      0.681750000000     0.656660000000     0.803530000000    -0.0358438  
C1048    C      0.667580000000     0.641690000000     0.818330000000    -0.0356964  
C1049    C      0.659470000000     0.656200000000     0.835280000000    -0.00687351 
C1050    C      0.665880000000     0.686040000000     0.837090000000    -0.0357259  
C1051    C      0.680060000000     0.701010000000     0.822300000000    -0.0357493  
C1052    C      0.644320000000     0.640290000000     0.851000000000     0.0487063  
C1053    C      0.622350000000     0.619890000000     0.846930000000    -0.0923997  
C1054    C      0.608150000000     0.605310000000     0.861860000000     0.0707339  
C1055    C      0.636970000000     0.630470000000     0.884810000000     0.0707364  
C1056    C      0.651580000000     0.645440000000     0.870220000000    -0.0927523  
C1057    C      0.607160000000     0.986350000000     0.528750000000     0.0733365  
C1058    C      0.621600000000     0.972050000000     0.543700000000    -0.0935174  
C1059    C      0.643330000000     0.951400000000     0.539640000000     0.0486815  
C1060    C      0.649990000000     0.945590000000     0.520400000000    -0.0921219  
C1061    C      0.635160000000     0.960310000000     0.505790000000     0.0680534  
C1062    C      0.659030000000     0.936070000000     0.555370000000    -0.00686142 
C1063    C      0.667780000000     0.951220000000     0.571940000000    -0.0356086  
C1064    C      0.682560000000     0.936830000000     0.586730000000    -0.0358009  
C1065    C      0.688950000000     0.906930000000     0.585290000000    -0.00679413 
C1066    C      0.680200000000     0.891780000000     0.568720000000    -0.0358214  
C1067    C      0.665410000000     0.906180000000     0.553940000000    -0.0356478  
C1068    C      0.704650000000     0.891600000000     0.601020000000     0.0482839  
C1069    C      0.698010000000     0.897400000000     0.620260000000    -0.0927538  
C1070    C      0.712810000000     0.882620000000     0.634860000000     0.0684809  
C1071    C      0.740760000000     0.856570000000     0.611890000000     0.0700494  
C1072    C      0.726370000000     0.870930000000     0.596950000000    -0.0925793  
C1073    C      0.856900000000     0.736060000000     0.611890000000     0.0697163  
C1074    C      0.871270000000     0.721650000000     0.596950000000    -0.0925759  
C1075    C      0.892960000000     0.700980000000     0.601030000000     0.048143   
C1076    C      0.899600000000     0.695180000000     0.620270000000    -0.0928846  
C1077    C      0.884790000000     0.709950000000     0.634870000000     0.0683708  
C1078    C      0.908650000000     0.685610000000     0.585310000000    -0.00707413 
C1079    C      0.893400000000     0.675910000000     0.568980000000    -0.035778   
C1080    C      0.908170000000     0.661540000000     0.554170000000    -0.036086   
C1081    C      0.938550000000     0.656530000000     0.555340000000    -0.00686852 
C1082    C      0.953800000000     0.666230000000     0.571680000000    -0.0359725  
C1083    C      0.939030000000     0.680600000000     0.586480000000    -0.0359409  
C1084    C      0.954250000000     0.641210000000     0.539610000000     0.0479851  
C1085    C      0.947610000000     0.647030000000     0.520380000000    -0.0919428  
C1086    C      0.962470000000     0.632330000000     0.505770000000     0.067606   
C1087    C      0.990410000000     0.606240000000     0.528730000000     0.0701318  
C1088    C      0.975990000000     0.620570000000     0.543680000000    -0.0926744  
C1089    C      0.858250000000     0.855200000000     0.778750000000     0.0703489  
C1090    C      0.872430000000     0.869770000000     0.793690000000    -0.0922121  
C1091    C      0.894380000000     0.890210000000     0.789630000000     0.0482161  
C1092    C      0.901630000000     0.895380000000     0.770410000000    -0.0915701  
C1093    C      0.887000000000     0.880450000000     0.755800000000     0.0684832  
C1094    C      0.909530000000     0.906100000000     0.805350000000    -0.00645819 
C1095    C      0.893670000000     0.916440000000     0.821260000000    -0.0358634  
C1096    C      0.907890000000     0.931440000000     0.836030000000    -0.0353867  
C1097    C      0.938290000000     0.936450000000     0.835240000000    -0.00705046 
C1098    C      0.954140000000     0.926100000000     0.819320000000    -0.0353301  
C1099    C      0.939920000000     0.911120000000     0.804560000000    -0.0357211  
C1100    C      0.953430000000     0.952350000000     0.850960000000     0.0496367  
C1101    C      0.946160000000     0.947200000000     0.870180000000    -0.093204   
C1102    C      0.960770000000     0.962140000000     0.884770000000     0.0714186  
C1103    C      0.989550000000     0.987360000000     0.861840000000     0.0748411  
C1104    C      0.975390000000     0.972770000000     0.846900000000    -0.0938366  
C1105    C      0.989430000000     0.605180000000     0.861860000000     0.0709928  
C1106    C      0.975260000000     0.619760000000     0.846910000000    -0.0924299  
C1107    C      0.953320000000     0.640190000000     0.850970000000     0.0484459  
C1108    C      0.946040000000     0.645360000000     0.870190000000    -0.091949   
C1109    C      0.960670000000     0.630430000000     0.884790000000     0.0686031  
C1110    C      0.938180000000     0.656090000000     0.835250000000    -0.00659274 
C1111    C      0.954040000000     0.666430000000     0.819340000000    -0.0358096  
C1112    C      0.939820000000     0.681440000000     0.804570000000    -0.0355032  
C1113    C      0.909430000000     0.686450000000     0.805360000000    -0.00678751 
C1114    C      0.893570000000     0.676100000000     0.821270000000    -0.0355304  
C1115    C      0.907770000000     0.661100000000     0.836030000000    -0.0357228  
C1116    C      0.894290000000     0.702370000000     0.789640000000     0.0488529  
C1117    C      0.901580000000     0.697220000000     0.770420000000    -0.0926638  
C1118    C      0.886950000000     0.712170000000     0.755820000000     0.0707476  
C1119    C      0.858180000000     0.737390000000     0.778770000000     0.0708592  
C1120    C      0.872340000000     0.722790000000     0.793700000000    -0.0923817  
C1121    C      0.608280000000     0.987470000000     0.861870000000     0.0739393  
C1122    C      0.622450000000     0.972890000000     0.846930000000    -0.093647   
C1123    C      0.644400000000     0.952460000000     0.850980000000     0.0489116  
C1124    C      0.651670000000     0.947280000000     0.870210000000    -0.0922705  
C1125    C      0.637030000000     0.962220000000     0.884800000000     0.0689542  
C1126    C      0.659530000000     0.936560000000     0.835270000000    -0.00691874 
C1127    C      0.643680000000     0.926210000000     0.819360000000    -0.0356994  
C1128    C      0.657880000000     0.911210000000     0.804590000000    -0.0356452  
C1129    C      0.688280000000     0.906190000000     0.805380000000    -0.00688026 
C1130    C      0.704140000000     0.916540000000     0.821280000000    -0.0355972  
C1131    C      0.689940000000     0.931540000000     0.836050000000    -0.035639   
C1132    C      0.703420000000     0.890280000000     0.789660000000     0.0487989  
C1133    C      0.696130000000     0.895430000000     0.770430000000    -0.0927923  
C1134    C      0.710740000000     0.880480000000     0.755840000000     0.0708726  
C1135    C      0.739530000000     0.855260000000     0.778770000000     0.0707785  
C1136    C      0.725370000000     0.869860000000     0.793710000000    -0.0926176  
C1137    C      0.962830000000     0.959980000000     0.505750000000     0.0689734  
C1138    C      0.948040000000     0.945210000000     0.520350000000    -0.0931658  
C1139    C      0.954660000000     0.951020000000     0.539590000000     0.0490804  
C1140    C      0.976370000000     0.971690000000     0.543660000000    -0.0939382  
C1141    C      0.990770000000     0.986060000000     0.528720000000     0.0740005  
C1142    C      0.938960000000     0.935690000000     0.555320000000    -0.00708047 
C1143    C      0.932580000000     0.905800000000     0.553890000000    -0.0356137  
C1144    C      0.917780000000     0.891410000000     0.568680000000    -0.035884   
C1145    C      0.909020000000     0.906570000000     0.585250000000    -0.00657919 
C1146    C      0.915400000000     0.936460000000     0.586670000000    -0.0357741  
C1147    C      0.930190000000     0.950850000000     0.571890000000    -0.0355484  
C1148    C      0.893320000000     0.891250000000     0.600980000000     0.0479606  
C1149    C      0.871580000000     0.870600000000     0.596920000000    -0.0921218  
C1150    C      0.857150000000     0.856290000000     0.611870000000     0.0697574  
C1151    C      0.885130000000     0.882350000000     0.634820000000     0.0677951  
C1152    C      0.899960000000     0.897070000000     0.620220000000    -0.0918119  
H897     H      0.548750000000     0.983050000000     0.918030000000     0.209971   
H898     H      0.613380000000     0.546270000000     0.973960000000     0.203831   
H899     H      0.548930000000     0.609590000000     0.918030000000     0.209824   
H900     H      0.984280000000     0.546370000000     0.973940000000     0.204561   
H901     H      0.653580000000     0.516690000000     0.947300000000     0.125345   
H902     H      0.657860000000     0.578350000000     0.947200000000     0.185219   
H903     H      0.576440000000     0.645970000000     0.956300000000     0.148138   
H904     H      0.510960000000     0.650970000000     0.932770000000     0.199416   
H905     H      0.944080000000     0.575950000000     0.947250000000     0.125351   
H906     H      0.939810000000     0.514280000000     0.947190000000     0.185358   
H907     H      0.521220000000     0.946670000000     0.956300000000     0.148014   
H908     H      0.586710000000     0.941680000000     0.932780000000     0.19938    
H909     H      0.515460000000     0.650890000000     0.956590000000     0.202439   
H910     H      0.944460000000     0.978260000000     0.944890000000     0.202257   
H911     H      0.582200000000     0.941740000000     0.956600000000     0.202158   
H912     H      0.653210000000     0.614380000000     0.944930000000     0.202706   
H913     H      0.798710000000     0.859590000000     0.722590000000     0.209851   
H914     H      0.863370000000     0.796400000000     0.666660000000     0.204308   
H915     H      0.798960000000     0.733050000000     0.722590000000     0.210056   
H916     H      0.734280000000     0.796240000000     0.666670000000     0.204298   
H917     H      0.903570000000     0.826010000000     0.693290000000     0.125304   
H918     H      0.907870000000     0.764360000000     0.693420000000     0.18565    
H919     H      0.826490000000     0.696680000000     0.684330000000     0.148255   
H920     H      0.761040000000     0.691660000000     0.707840000000     0.199838   
H921     H      0.694090000000     0.766630000000     0.693360000000     0.125448   
H922     H      0.689790000000     0.828290000000     0.693430000000     0.1856     
H923     H      0.771170000000     0.895960000000     0.684320000000     0.148418   
H924     H      0.836640000000     0.900980000000     0.707830000000     0.200022   
H925     H      0.765510000000     0.691730000000     0.684020000000     0.202997   
H926     H      0.694410000000     0.864320000000     0.695720000000     0.202942   
H927     H      0.832150000000     0.900900000000     0.684020000000     0.203398   
H928     H      0.903250000000     0.728330000000     0.695690000000     0.203189   
H929     H      0.590370000000     0.590650000000     0.532650000000     0.0273802  
H930     H      0.615670000000     0.615550000000     0.558340000000     0.0514441  
H931     H      0.665920000000     0.663590000000     0.516540000000     0.0510127  
H932     H      0.640660000000     0.637990000000     0.991090000000     0.0201419  
H933     H      0.619930000000     0.663580000000     0.572880000000     0.0368172  
H934     H      0.645710000000     0.688650000000     0.598690000000     0.037059   
H935     H      0.727280000000     0.679510000000     0.567710000000     0.0368441  
H936     H      0.701500000000     0.654450000000     0.541890000000     0.0364536  
H937     H      0.681270000000     0.679480000000     0.624050000000     0.0516895  
H938     H      0.706620000000     0.704950000000     0.649510000000     0.0269712  
H939     H      0.756990000000     0.752270000000     0.607980000000     0.0273793  
H940     H      0.731600000000     0.727500000000     0.582270000000     0.0513438  
H941     H      0.704240000000     0.707440000000     0.741170000000     0.0273203  
H942     H      0.678930000000     0.681920000000     0.766620000000     0.0520392  
H943     H      0.731830000000     0.727270000000     0.808340000000     0.051669   
H944     H      0.756420000000     0.752870000000     0.782650000000     0.0277091  
H945     H      0.688110000000     0.644730000000     0.790790000000     0.0370912  
H946     H      0.663360000000     0.618620000000     0.816590000000     0.0374022  
H947     H      0.659530000000     0.697970000000     0.849840000000     0.037237   
H948     H      0.684270000000     0.724090000000     0.824040000000     0.0374382  
H949     H      0.615780000000     0.615470000000     0.832280000000     0.0518228  
H950     H      0.591190000000     0.589850000000     0.857970000000     0.0276686  
H951     H      0.643410000000     0.635200000000     0.899460000000     0.0245638  
H952     H      0.668720000000     0.660750000000     0.874010000000     0.0515391  
H953     H      0.590460000000     0.502100000000     0.532640000000     0.0275698  
H954     H      0.615450000000     0.976930000000     0.558360000000     0.052509   
H955     H      0.666890000000     0.930040000000     0.516600000000     0.0520516  
H956     H      0.641200000000     0.955150000000     0.991140000000     0.0245833  
H957     H      0.663610000000     0.974350000000     0.573370000000     0.0374407  
H958     H      0.689390000000     0.949230000000     0.599160000000     0.0374059  
H959     H      0.684370000000     0.868650000000     0.567280000000     0.037075   
H960     H      0.658580000000     0.893770000000     0.541500000000     0.0371041  
H961     H      0.681130000000     0.912970000000     0.624070000000     0.0512444  
H962     H      0.706760000000     0.887770000000     0.649520000000     0.0227777  
H963     H      0.757430000000     0.840790000000     0.607990000000     0.0274987  
H964     H      0.732500000000     0.866050000000     0.582290000000     0.0518723  
H965     H      0.840380000000     0.751990000000     0.607980000000     0.0273636  
H966     H      0.865670000000     0.727070000000     0.582270000000     0.0513933  
H967     H      0.915950000000     0.679070000000     0.624090000000     0.0510505  
H968     H      0.890700000000     0.704670000000     0.649530000000     0.0226605  
H969     H      0.869920000000     0.679030000000     0.567760000000     0.0368454  
H970     H      0.895690000000     0.653950000000     0.541940000000     0.0370514  
H971     H      0.977280000000     0.663120000000     0.572900000000     0.0368481  
H972     H      0.951510000000     0.688190000000     0.598710000000     0.036588   
H973     H      0.931230000000     0.663120000000     0.516570000000     0.0517178  
H974     H      0.956580000000     0.637650000000     0.991120000000     0.024506   
H975     H      0.506970000000     0.590350000000     0.532630000000     0.0273909  
H976     H      0.981590000000     0.615130000000     0.558340000000     0.0515449  
H977     H      0.841430000000     0.839570000000     0.782640000000     0.0277822  
H978     H      0.866400000000     0.864790000000     0.808350000000     0.0518527  
H979     H      0.918240000000     0.911250000000     0.766600000000     0.0521322  
H980     H      0.893290000000     0.885360000000     0.741160000000     0.0273719  
H981     H      0.870160000000     0.913360000000     0.822170000000     0.03709    
H982     H      0.894960000000     0.939500000000     0.847930000000     0.0372241  
H983     H      0.977650000000     0.929200000000     0.818410000000     0.0372007  
H984     H      0.952850000000     0.903060000000     0.792650000000     0.0377209  
H985     H      0.929540000000     0.931340000000     0.873980000000     0.0518532  
H986     H      0.954450000000     0.957260000000     0.899430000000     0.0246759  
H987     H      0.506370000000     0.502990000000     0.857950000000     0.0276953  
H988     H      0.981440000000     0.977750000000     0.832230000000     0.0528322  
H989     H      0.506260000000     0.589560000000     0.857970000000     0.027828   
H990     H      0.981300000000     0.614770000000     0.832250000000     0.0521426  
H991     H      0.929440000000     0.661220000000     0.873990000000     0.0520281  
H992     H      0.954370000000     0.635330000000     0.899430000000     0.0271297  
H993     H      0.977550000000     0.663340000000     0.818430000000     0.0373304  
H994     H      0.952760000000     0.689510000000     0.792670000000     0.0372912  
H995     H      0.870060000000     0.679190000000     0.822170000000     0.0373292  
H996     H      0.894850000000     0.653030000000     0.847930000000     0.0376938  
H997     H      0.918180000000     0.681360000000     0.766610000000     0.0518236  
H998     H      0.893270000000     0.707290000000     0.741180000000     0.0247478  
H999     H      0.841350000000     0.753000000000     0.782660000000     0.0277521  
H1000    H      0.866280000000     0.727760000000     0.808370000000     0.0519809  
H1001    H      0.591470000000     0.503090000000     0.857980000000     0.0276675  
H1002    H      0.616420000000     0.977880000000     0.832270000000     0.0525624  
H1003    H      0.668270000000     0.931420000000     0.874010000000     0.0520456  
H1004    H      0.643320000000     0.957310000000     0.899460000000     0.0271567  
H1005    H      0.620160000000     0.929300000000     0.818450000000     0.0369867  
H1006    H      0.644950000000     0.903140000000     0.792680000000     0.0371115  
H1007    H      0.727660000000     0.913450000000     0.822190000000     0.0370902  
H1008    H      0.702870000000     0.939610000000     0.847960000000     0.037608   
H1009    H      0.679520000000     0.911280000000     0.766630000000     0.0518747  
H1010    H      0.704420000000     0.885360000000     0.741190000000     0.0247773  
H1011    H      0.756350000000     0.839650000000     0.782670000000     0.0275949  
H1012    H      0.731420000000     0.864890000000     0.808370000000     0.0517561  
H1013    H      0.956790000000     0.954830000000     0.991090000000     0.0202653  
H1014    H      0.931160000000     0.929630000000     0.516550000000     0.0513332  
H1015    H      0.982500000000     0.976580000000     0.558320000000     0.0527426  
H1016    H      0.507430000000     0.501840000000     0.532630000000     0.0275118  
H1017    H      0.939410000000     0.893380000000     0.541460000000     0.0371259  
H1018    H      0.913620000000     0.868280000000     0.567250000000     0.0371641  
H1019    H      0.908560000000     0.948870000000     0.599100000000     0.0374344  
H1020    H      0.934350000000     0.973980000000     0.573310000000     0.0374205  
H1021    H      0.865450000000     0.865700000000     0.582250000000     0.051676   
H1022    H      0.840460000000     0.840540000000     0.607980000000     0.0275739  
H1023    H      0.891180000000     0.887530000000     0.649480000000     0.0271488  
H1024    H      0.916860000000     0.912630000000     0.624010000000     0.0520457  
N113     N      0.613600000000     0.612290000000     0.509870000000    -0.189661   
N114     N      0.733740000000     0.730620000000     0.630750000000    -0.189454   
N115     N      0.732330000000     0.732100000000     0.759910000000    -0.188998   
N116     N      0.615300000000     0.610590000000     0.880710000000    -0.189089   
N117     N      0.613900000000     0.980630000000     0.509890000000    -0.189968   
N118     N      0.734020000000     0.862250000000     0.630750000000    -0.189839   
N119     N      0.863620000000     0.730350000000     0.630750000000    -0.189797   
N120     N      0.983710000000     0.611990000000     0.509870000000    -0.18932    
N121     N      0.865360000000     0.860530000000     0.759890000000    -0.189078   
N122     N      0.982410000000     0.982060000000     0.880690000000    -0.18998    
N123     N      0.982310000000     0.610500000000     0.880710000000    -0.189322   
N124     N      0.865310000000     0.732090000000     0.759920000000    -0.188939   
N125     N      0.615390000000     0.982140000000     0.880720000000    -0.189875   
N126     N      0.732390000000     0.860560000000     0.759920000000    -0.189097   
N127     N      0.984030000000     0.980360000000     0.509860000000    -0.190602   
N128     N      0.863880000000     0.862020000000     0.630730000000    -0.189285   
O449     O      0.991070000000     0.988920000000     0.977730000000    -0.363917   
O450     O      0.517770000000     0.514170000000     0.999910000000    -0.35481    
O451     O      0.608270000000     0.990580000000     0.912860000000    -0.358577   
O452     O      0.580520000000     0.514750000000     0.890710000000    -0.35376    
O453     O      0.606830000000     0.989110000000     0.977750000000    -0.360563   
O454     O      0.579960000000     0.514230000000     0.999910000000    -0.354404   
O455     O      0.989530000000     0.990510000000     0.912820000000    -0.353878   
O456     O      0.517200000000     0.514770000000     0.890680000000    -0.353577   
O457     O      0.510790000000     0.951690000000     0.944290000000    -0.339735   
O458     O      0.952630000000     0.997630000000     0.945880000000    -0.509153   
O459     O      0.585930000000     0.952160000000     0.944790000000    -0.512453   
O460     O      0.645360000000     0.996860000000     0.945780000000    -0.324493   
O461     O      0.548750000000     0.999730000000     0.964420000000    -0.466686   
O462     O      0.548760000000     0.999900000000     0.926330000000    -0.608234   
O463     O      0.989420000000     0.602060000000     0.912840000000    -0.359197   
O464     O      0.517190000000     0.577890000000     0.890700000000    -0.353606   
O465     O      0.606570000000     0.603720000000     0.977740000000    -0.364776   
O466     O      0.579870000000     0.578470000000     0.999920000000    -0.354876   
O467     O      0.608160000000     0.602120000000     0.912840000000    -0.354879   
O468     O      0.580500000000     0.577870000000     0.890690000000    -0.353423   
O469     O      0.990800000000     0.603520000000     0.977730000000    -0.360971   
O470     O      0.517670000000     0.578400000000     0.999910000000    -0.354251   
O471     O      0.511750000000     0.640480000000     0.944780000000    -0.513517   
O472     O      0.952320000000     0.595780000000     0.945760000000    -0.327596   
O473     O      0.586880000000     0.640950000000     0.944300000000    -0.340774   
O474     O      0.645040000000     0.595010000000     0.945910000000    -0.513188   
O475     O      0.548910000000     0.592740000000     0.926340000000    -0.610797   
O476     O      0.548910000000     0.592910000000     0.964420000000    -0.469222   
O477     O      0.500990000000     0.546410000000     0.924730000000    -0.475235   
O478     O      0.596420000000     0.546250000000     0.965640000000    -0.624088   
O479     O      0.501230000000     0.546390000000     0.965630000000    -0.624369   
O480     O      0.596690000000     0.546230000000     0.924750000000    -0.475318   
O481     O      0.741040000000     0.853690000000     0.662880000000    -0.364736   
O482     O      0.767760000000     0.828450000000     0.640700000000    -0.354302   
O483     O      0.858240000000     0.852080000000     0.727760000000    -0.359208   
O484     O      0.830490000000     0.827900000000     0.749910000000    -0.353616   
O485     O      0.856810000000     0.853540000000     0.662870000000    -0.361361   
O486     O      0.829960000000     0.828420000000     0.640700000000    -0.353997   
O487     O      0.739500000000     0.852100000000     0.727790000000    -0.354679   
O488     O      0.767180000000     0.827850000000     0.749940000000    -0.353494   
O489     O      0.760730000000     0.890930000000     0.696320000000    -0.340441   
O490     O      0.702600000000     0.844950000000     0.694730000000    -0.513127   
O491     O      0.835870000000     0.890500000000     0.695820000000    -0.514242   
O492     O      0.895320000000     0.845840000000     0.694840000000    -0.327128   
O493     O      0.798720000000     0.842910000000     0.676190000000    -0.469141   
O494     O      0.798740000000     0.842740000000     0.714280000000    -0.610736   
O495     O      0.739440000000     0.740550000000     0.727770000000    -0.359149   
O496     O      0.767190000000     0.764730000000     0.749920000000    -0.353537   
O497     O      0.856600000000     0.738940000000     0.662870000000    -0.365033   
O498     O      0.829880000000     0.764170000000     0.640700000000    -0.354599   
O499     O      0.858180000000     0.740540000000     0.727780000000    -0.354367   
O500     O      0.830500000000     0.764790000000     0.749940000000    -0.353421   
O501     O      0.740840000000     0.739100000000     0.662870000000    -0.36172    
O502     O      0.767680000000     0.764210000000     0.640710000000    -0.354201   
O503     O      0.761800000000     0.702130000000     0.695830000000    -0.51407    
O504     O      0.702340000000     0.746800000000     0.694860000000    -0.327372   
O505     O      0.836940000000     0.701710000000     0.696330000000    -0.340459   
O506     O      0.895070000000     0.747690000000     0.694710000000    -0.513468   
O507     O      0.798930000000     0.749900000000     0.714290000000    -0.610871   
O508     O      0.798930000000     0.749720000000     0.676200000000    -0.469414   
O509     O      0.750980000000     0.796200000000     0.715880000000    -0.475063   
O510     O      0.846420000000     0.796410000000     0.674980000000    -0.624491   
O511     O      0.751230000000     0.796220000000     0.674990000000    -0.624351   
O512     O      0.846690000000     0.796430000000     0.715870000000    -0.475196   
Zr85     Zr     0.505020000000     0.504440000000     0.945270000000     1.29364    
Zr86     Zr     0.592500000000     0.504280000000     0.945300000000     1.29403    
Zr87     Zr     0.505160000000     0.588360000000     0.945280000000     1.29422    
Zr88     Zr     0.592650000000     0.588200000000     0.945280000000     1.29384    
Zr89     Zr     0.548830000000     0.546320000000     0.981250000000     1.27131    
Zr90     Zr     0.548850000000     0.546320000000     0.909370000000     1.26846    
Zr91     Zr     0.754990000000     0.838180000000     0.695340000000     1.29385    
Zr92     Zr     0.842480000000     0.838380000000     0.695320000000     1.29445    
Zr93     Zr     0.755190000000     0.754250000000     0.695320000000     1.29441    
Zr94     Zr     0.842670000000     0.754460000000     0.695330000000     1.29381    
Zr95     Zr     0.798830000000     0.796310000000     0.659360000000     1.27174    
Zr96     Zr     0.798840000000     0.796320000000     0.731250000000     1.26834    


