data_structure

_audit_creation_method RASPA-1.0
_audit_creation_date 2023-6-5
_audit_author_name 'Poobodin Mano'

_cell_length_a    26.7797
_cell_length_b    27.1148
_cell_length_c    27.2273
_cell_angle_alpha 89.2565
_cell_angle_beta  89.2563
_cell_angle_gamma 89.2563
_cell_volume      19765.5

_symmetry_cell_setting          triclinic
_symmetry_space_group_name_Hall 'P 1'
_symmetry_space_group_name_H-M  'P 1'
_symmetry_Int_Tables_number     1

_symmetry_equiv_pos_as_xyz 'x,y,z'

loop_
_atom_site_label
_atom_site_type_symbol
_atom_site_fract_x
_atom_site_fract_y
_atom_site_fract_z
_atom_site_charge
C1       C      0.859230000000     0.978100000000     0.369170000000     0.380779   
C2       C      0.985070000000     0.096610000000     0.617140000000     0.380349   
C3       C      0.977670000000     0.103020000000     0.361160000000     0.373094   
C4       C      0.876380000000     0.957870000000     0.624350000000     0.37935    
C5       C      0.004480000000     0.854750000000     0.614890000000     0.377827   
C6       C      0.105070000000     0.980630000000     0.351670000000     0.377974   
C7       C      0.119430000000     0.988910000000     0.607050000000     0.382498   
C8       C      0.989990000000     0.859160000000     0.359880000000     0.379504   
C9       C      0.001590000000     0.354740000000     0.105470000000     0.378342   
C10      C      0.873050000000     0.613430000000     0.989330000000     0.381781   
C11      C      0.872720000000     0.356520000000     0.991640000000     0.375537   
C12      C      0.010960000000     0.612100000000     0.100040000000     0.383715   
C13      C      0.118300000000     0.611110000000     0.974760000000     0.380537   
C14      C      0.996450000000     0.355520000000     0.863900000000     0.383478   
C15      C      0.978920000000     0.612380000000     0.861240000000     0.379178   
C16      C      0.119400000000     0.354030000000     0.974810000000     0.376665   
C17      C      0.621710000000     0.108940000000     0.972670000000     0.379369   
C18      C      0.352500000000     0.014180000000     0.103290000000     0.37693    
C19      C      0.612630000000     0.013500000000     0.112290000000     0.378285   
C20      C      0.362030000000     0.112830000000     0.949630000000     0.380475   
C21      C      0.365170000000     0.976100000000     0.864780000000     0.380689   
C22      C      0.615720000000     0.869380000000     0.012660000000     0.381336   
C23      C      0.356020000000     0.877360000000     0.010580000000     0.382485   
C24      C      0.624970000000     0.967820000000     0.875120000000     0.37674    
C25      C      0.641290000000     0.781390000000     0.008360000000     0.0119755  
C26      C      0.853930000000     0.701680000000     0.976820000000     0.0133301  
C27      C      0.786250000000     0.641650000000     0.005780000000     0.0567992  
C28      C      0.819120000000     0.742040000000     0.997020000000    -0.104367   
C29      C      0.676400000000     0.762200000000     0.968120000000    -0.100563   
C30      C      0.749600000000     0.678600000000     0.981610000000    -0.114012   
C31      C      0.730080000000     0.769950000000     0.983440000000     0.0152509  
C32      C      0.764530000000     0.732220000000     0.987040000000     0.02416    
C33      C      0.703730000000     0.845650000000     0.030490000000     0.0107719  
C34      C      0.741920000000     0.823610000000     0.994070000000    -0.100418   
C35      C      0.852500000000     0.267540000000     0.998930000000     0.00606645 
C36      C      0.648070000000     0.195050000000     0.963820000000     0.0145903  
C37      C      0.712810000000     0.124030000000     0.965450000000     0.0546839  
C38      C      0.693420000000     0.226350000000     0.950640000000    -0.105722   
C39      C      0.813890000000     0.239070000000     0.030140000000    -0.0982921  
C40      C      0.749580000000     0.159560000000     0.990110000000    -0.113727   
C41      C      0.762350000000     0.248890000000     0.009440000000     0.0155596  
C42      C      0.736050000000     0.213970000000     0.984910000000     0.0257179  
C43      C      0.785250000000     0.331690000000     0.978690000000     0.00623192 
C44      C      0.748540000000     0.303060000000     0.011110000000    -0.0981646  
C45      C      0.267370000000     0.855140000000     0.997710000000     0.00849518 
C46      C      0.206150000000     0.637260000000     0.966440000000     0.0120501  
C47      C      0.135660000000     0.700290000000     0.979870000000     0.0517204  
C48      C      0.239440000000     0.674150000000     0.992180000000    -0.103593   
C49      C      0.254170000000     0.815490000000     0.960690000000    -0.0985692  
C50      C      0.174220000000     0.737360000000     0.959420000000    -0.113062   
C51      C      0.260900000000     0.764080000000     0.983340000000     0.0142195  
C52      C      0.226610000000     0.727320000000     0.978520000000     0.0235235  
C53      C      0.324880000000     0.796570000000     0.041370000000     0.0117167  
C54      C      0.311630000000     0.754710000000     0.006840000000    -0.0985991  
C55      C      0.207780000000     0.329000000000     0.962920000000     0.00785274 
C56      C      0.272940000000     0.128060000000     0.936580000000     0.0121914  
C57      C      0.339820000000     0.195270000000     0.915030000000     0.0516907  
C58      C      0.234440000000     0.165170000000     0.917440000000    -0.105073   
C59      C      0.243040000000     0.291400000000     0.987050000000    -0.101364   
C60      C      0.295600000000     0.231770000000     0.906060000000    -0.113884   
C61      C      0.227520000000     0.240630000000     0.971880000000     0.0192442  
C62      C      0.249400000000     0.215610000000     0.933610000000     0.0270947  
C63      C      0.138350000000     0.264560000000     0.969740000000     0.00858259 
C64      C      0.176500000000     0.228760000000     0.992800000000    -0.101817   
C65      C      0.656010000000     0.951040000000     0.790450000000     0.00805678 
C66      C      0.864360000000     0.962020000000     0.713040000000     0.0087526  
C67      C      0.792720000000     0.932200000000     0.656780000000     0.0519509  
C68      C      0.833120000000     0.945810000000     0.757780000000    -0.10396    
C69      C      0.690130000000     0.982930000000     0.758150000000    -0.100558   
C70      C      0.765340000000     0.916530000000     0.704470000000    -0.113757   
C71      C      0.743630000000     0.974820000000     0.773890000000     0.0168676  
C72      C      0.778340000000     0.949190000000     0.746540000000     0.0253134  
C73      C      0.716580000000     0.959550000000     0.860520000000     0.00925512 
C74      C      0.751420000000     0.989730000000     0.826740000000    -0.102149   
C75      C      0.276800000000     0.986410000000     0.839460000000     0.0092645  
C76      C      0.206390000000     0.008670000000     0.627140000000     0.0160033  
C77      C      0.143650000000     0.983740000000     0.694380000000     0.0541317  
C78      C      0.246450000000     0.990480000000     0.662890000000    -0.106405   
C79      C      0.260820000000     0.025820000000     0.801930000000    -0.0989544  
C80      C      0.178860000000     0.011400000000     0.728620000000    -0.112127   
C81      C      0.270360000000     0.006760000000     0.750300000000     0.016052   
C82      C      0.233800000000     0.003180000000     0.715800000000     0.0245692  
C83      C      0.341330000000     0.953760000000     0.780050000000     0.0108172  
C84      C      0.324400000000     0.991060000000     0.740700000000    -0.100975   
C85      C      0.322600000000     0.017130000000     0.189460000000     0.00914312 
C86      C      0.116750000000     0.989020000000     0.263040000000     0.00932636 
C87      C      0.192870000000     0.973290000000     0.320500000000     0.0506008  
C88      C      0.151800000000     0.980860000000     0.218930000000    -0.105205   
C89      C      0.282740000000     0.045960000000     0.218190000000    -0.100574   
C90      C      0.224490000000     0.966410000000     0.273310000000    -0.113892   
C91      C      0.231920000000     0.028590000000     0.203330000000     0.017618   
C92      C      0.203990000000     0.996180000000     0.230950000000     0.0254055  
C93      C      0.261140000000     0.012930000000     0.118100000000     0.00892195 
C94      C      0.222330000000     0.040550000000     0.149850000000    -0.101036   
C95      C      0.636340000000     0.025050000000     0.199420000000     0.00882872 
C96      C      0.834150000000     0.957240000000     0.285930000000     0.00903219 
C97      C      0.768300000000     0.990510000000     0.344520000000     0.0491423  
C98      C      0.811320000000     0.986330000000     0.243100000000    -0.102803   
C99      C      0.665200000000     0.986050000000     0.228900000000    -0.0997811  
C100     C      0.745240000000     0.019890000000     0.301360000000    -0.111232   
C101     C      0.720750000000     0.989730000000     0.217360000000     0.0151472  
C102     C      0.756220000000     0.995570000000     0.252570000000     0.0208255  
C103     C      0.702230000000     0.022650000000     0.133020000000     0.00994665 
C104     C      0.733460000000     0.985380000000     0.162930000000    -0.100538   
C105     C      0.994730000000     0.117360000000     0.705120000000     0.00865384 
C106     C      0.012650000000     0.332130000000     0.778090000000     0.0174911  
C107     C      0.993520000000     0.266670000000     0.843880000000     0.0521363  
C108     C      0.990840000000     0.296240000000     0.741720000000    -0.107692   
C109     C      0.029440000000     0.156890000000     0.724590000000    -0.0984287  
C110     C      0.018340000000     0.231020000000     0.806670000000    -0.112166   
C111     C      0.006380000000     0.208140000000     0.717510000000     0.0162938  
C112     C      0.005090000000     0.243080000000     0.753540000000     0.0246453  
C113     C      0.956880000000     0.178610000000     0.646150000000     0.0122726  
C114     C      0.989780000000     0.219550000000     0.665200000000    -0.101728   
C115     C      0.001080000000     0.766940000000     0.640230000000     0.00933023 
C116     C      0.979790000000     0.700940000000     0.843630000000     0.00998693 
C117     C      0.957250000000     0.637440000000     0.775780000000     0.0508964  
C118     C      0.965270000000     0.741400000000     0.806890000000    -0.104194   
C119     C      0.029390000000     0.732720000000     0.675630000000    -0.101164   
C120     C      0.950370000000     0.682230000000     0.740500000000    -0.113483   
C121     C      0.016730000000     0.747890000000     0.727490000000     0.019681   
C122     C      0.980690000000     0.725570000000     0.756070000000     0.0255489  
C123     C      0.008910000000     0.835720000000     0.703860000000     0.00968614 
C124     C      0.036630000000     0.798670000000     0.737090000000    -0.101503   
C125     C      0.003490000000     0.700850000000     0.120790000000     0.0128183  
C126     C      0.981770000000     0.772550000000     0.335510000000     0.0104779  
C127     C      0.997380000000     0.840420000000     0.271210000000     0.0513501  
C128     C      0.007360000000     0.737910000000     0.299080000000    -0.0997337  
C129     C      0.969190000000     0.720640000000     0.161500000000    -0.101131   
C130     C      0.976380000000     0.802560000000     0.235090000000    -0.111989   
C131     C      0.993500000000     0.713690000000     0.211450000000     0.015504   
C132     C      0.992680000000     0.749600000000     0.246510000000     0.0215135  
C133     C      0.043510000000     0.640950000000     0.179410000000     0.0115686  
C134     C      0.012460000000     0.661400000000     0.222270000000    -0.0982581  
C135     C      0.970880000000     0.124970000000     0.272530000000     0.00638245 
C136     C      0.000900000000     0.331020000000     0.192930000000     0.0150727  
C137     C      0.006970000000     0.265240000000     0.125980000000     0.0556556  
C138     C      0.015730000000     0.288290000000     0.227080000000    -0.104777   
C139     C      0.940720000000     0.164370000000     0.243960000000    -0.0987787  
C140     C      0.980350000000     0.229770000000     0.162810000000    -0.113502   
C141     C      0.962360000000     0.214920000000     0.252930000000     0.0147346  
C142     C      0.984800000000     0.243160000000     0.216720000000     0.023822   
C143     C      0.991980000000     0.189670000000     0.335520000000     0.00573301 
C144     C      0.960530000000     0.227340000000     0.307010000000    -0.0986485  
H1       H      0.911480000000     0.047380000000     0.564050000000     0.208053   
H2       H      0.057970000000     0.060500000000     0.410090000000     0.202476   
H3       H      0.076220000000     0.906440000000     0.551620000000     0.20778    
H4       H      0.913190000000     0.899160000000     0.419550000000     0.203206   
H5       H      0.066880000000     0.144200000000     0.477460000000     0.123743   
H6       H      0.151450000000     0.080380000000     0.470960000000     0.182911   
H7       H      0.145450000000     0.897780000000     0.457940000000     0.147288   
H8       H      0.086740000000     0.815100000000     0.511160000000     0.195401   
H9       H      0.911770000000     0.813030000000     0.491740000000     0.12538    
H10      H      0.825180000000     0.878500000000     0.493880000000     0.185109   
H11      H      0.831530000000     0.059650000000     0.478860000000     0.147498   
H12      H      0.894460000000     0.140910000000     0.521660000000     0.196091   
H13      H      0.083780000000     0.817600000000     0.449830000000     0.200549   
H14      H      0.784490000000     0.925850000000     0.496100000000     0.203677   
H15      H      0.893700000000     0.141660000000     0.460240000000     0.200353   
H16      H      0.193290000000     0.034020000000     0.468560000000     0.201579   
H17      H      0.924820000000     0.554680000000     0.063370000000     0.209591   
H18      H      0.914260000000     0.410720000000     0.913000000000     0.203138   
H19      H      0.066930000000     0.553710000000     0.900330000000     0.207416   
H20      H      0.078850000000     0.409230000000     0.053960000000     0.202758   
H21      H      0.827760000000     0.482560000000     0.907660000000     0.124671   
H22      H      0.892220000000     0.479320000000     0.824330000000     0.184457   
H23      H      0.075900000000     0.463560000000     0.825520000000     0.145244   
H24      H      0.161180000000     0.513770000000     0.887990000000     0.195487   
H25      H      0.163570000000     0.478370000000     0.058450000000     0.124397   
H26      H      0.098300000000     0.473600000000     0.143820000000     0.18278    
H27      H      0.918760000000     0.460280000000     0.142310000000     0.146178   
H28      H      0.830560000000     0.513750000000     0.077750000000     0.199165   
H29      H      0.157990000000     0.452260000000     0.886040000000     0.199195   
H30      H      0.051300000000     0.481700000000     0.184180000000     0.199593   
H31      H      0.835420000000     0.452190000000     0.080020000000     0.200401   
H32      H      0.938900000000     0.475410000000     0.783000000000     0.201429   
H33      H      0.415000000000     0.083140000000     0.045030000000     0.207619   
H34      H      0.557750000000     0.929440000000     0.081570000000     0.200794   
H35      H      0.419880000000     0.906120000000     0.927070000000     0.207686   
H36      H      0.568690000000     0.052530000000     0.902310000000     0.204061   
H37      H      0.484900000000     0.935360000000     0.163330000000     0.123829   
H38      H      0.491720000000     0.845410000000     0.111040000000     0.181936   
H39      H      0.511550000000     0.826920000000     0.933070000000     0.145379   
H40      H      0.464490000000     0.882350000000     0.838260000000     0.195242   
H41      H      0.499580000000     0.051140000000     0.815730000000     0.125356   
H42      H      0.502970000000     0.143380000000     0.868990000000     0.18484    
H43      H      0.513380000000     0.159260000000     0.044610000000     0.14588    
H44      H      0.448470000000     0.103560000000     0.138130000000     0.196627   
H45      H      0.526420000000     0.878590000000     0.845040000000     0.199038   
H46      H      0.499660000000     0.188420000000     0.910450000000     0.200718   
H47      H      0.510670000000     0.107210000000     0.133410000000     0.199932   
H48      H      0.481270000000     0.799710000000     0.071840000000     0.200526   
H49      H      0.666700000000     0.723840000000     0.959290000000     0.0429655  
H50      H      0.854800000000     0.704300000000     0.936000000000     0.0317694  
H51      H      0.711160000000     0.829260000000     0.067380000000     0.0258883  
H52      H      0.779140000000     0.828850000000     0.010280000000     0.0423051  
H53      H      0.831330000000     0.776740000000     0.978700000000     0.0425993  
H54      H      0.747760000000     0.670580000000     0.941740000000     0.0541608  
H55      H      0.602190000000     0.775320000000     0.996910000000     0.0343733  
H56      H      0.892390000000     0.709460000000     0.989290000000     0.0374403  
H57      H      0.740760000000     0.845110000000     0.959040000000     0.0512554  
H58      H      0.712050000000     0.671720000000     0.997990000000     0.0500166  
H59      H      0.709890000000     0.885970000000     0.033190000000     0.0365992  
H60      H      0.774990000000     0.604290000000     0.994110000000     0.0319607  
H61      H      0.669680000000     0.783900000000     0.933840000000     0.0520376  
H62      H      0.824400000000     0.745350000000     0.037250000000     0.0523394  
H63      H      0.647770000000     0.759680000000     0.042710000000     0.028152   
H64      H      0.824980000000     0.199610000000     0.031950000000     0.0414207  
H65      H      0.631510000000     0.207860000000     0.999180000000     0.0301843  
H66      H      0.779680000000     0.321220000000     0.939800000000     0.0291788  
H67      H      0.709550000000     0.312290000000     0.001590000000     0.0432739  
H68      H      0.681380000000     0.265380000000     0.949800000000     0.0443517  
H69      H      0.749540000000     0.150300000000     0.030050000000     0.0512881  
H70      H      0.889430000000     0.263520000000     0.016860000000     0.0397875  
H71      H      0.619210000000     0.201430000000     0.935300000000     0.0308578  
H72      H      0.752300000000     0.315870000000     0.049520000000     0.0503167  
H73      H      0.788250000000     0.152790000000     0.976020000000     0.0491369  
H74      H      0.775820000000     0.371580000000     0.981520000000     0.0404394  
H75      H      0.717190000000     0.087880000000     0.984760000000     0.0319093  
H76      H      0.814860000000     0.252540000000     0.068520000000     0.0486771  
H77      H      0.705760000000     0.218420000000     0.912430000000     0.0540449  
H78      H      0.855670000000     0.250170000000     0.962210000000     0.0327942  
H79      H      0.216560000000     0.823870000000     0.946400000000     0.0420579  
H80      H      0.214490000000     0.638400000000     0.926320000000     0.0264403  
H81      H      0.299410000000     0.794580000000     0.073940000000     0.0282985  
H82      H      0.313100000000     0.720330000000     0.029290000000     0.0433961  
H83      H      0.278460000000     0.664880000000     0.980960000000     0.0444663  
H84      H      0.175460000000     0.735000000000     0.918690000000     0.0509023  
H85      H      0.264120000000     0.891940000000     0.979510000000     0.0384489  
H86      H      0.216370000000     0.599620000000     0.979890000000     0.0396049  
H87      H      0.340560000000     0.751790000000     0.977340000000     0.0527298  
H88      H      0.160290000000     0.774820000000     0.968950000000     0.04814    
H89      H      0.363500000000     0.790600000000     0.054880000000     0.0358136  
H90      H      0.100490000000     0.706920000000     0.959370000000     0.0299664  
H91      H      0.280070000000     0.818570000000     0.928580000000     0.0509266  
H92      H      0.235600000000     0.669090000000     0.032630000000     0.0547975  
H93      H      0.239730000000     0.853890000000     0.028550000000     0.0299969  
H94      H      0.282560000000     0.300230000000     0.979320000000     0.0446737  
H95      H      0.263650000000     0.119270000000     0.975670000000     0.0339565  
H96      H      0.133460000000     0.254710000000     0.930580000000     0.0307595  
H97      H      0.164740000000     0.190220000000     0.988400000000     0.0431926  
H98      H      0.196470000000     0.153840000000     0.928580000000     0.0427934  
H99      H      0.307510000000     0.269770000000     0.913480000000     0.0478135  
H100     H      0.217200000000     0.366030000000     0.976880000000     0.0394506  
H101     H      0.269130000000     0.093040000000     0.916160000000     0.0349666  
H102     H      0.176400000000     0.234460000000     0.033200000000     0.0516624  
H103     H      0.285210000000     0.233510000000     0.866530000000     0.0513374  
H104     H      0.101820000000     0.258900000000     0.988730000000     0.0401456  
H105     H      0.363820000000     0.212110000000     0.943180000000     0.0291357  
H106     H      0.239020000000     0.294580000000     0.027620000000     0.0515678  
H107     H      0.234590000000     0.163880000000     0.876590000000     0.048161   
H108     H      0.215110000000     0.329590000000     0.922610000000     0.0287111  
H109     H      0.683590000000     0.976840000000     0.718640000000     0.0448968  
H110     H      0.867160000000     0.002950000000     0.713360000000     0.0328955  
H111     H      0.729920000000     0.920520000000     0.860820000000     0.0282735  
H112     H      0.789780000000     0.984590000000     0.840350000000     0.0430658  
H113     H      0.844730000000     0.969160000000     0.788430000000     0.0431508  
H114     H      0.724790000000     0.913640000000     0.697850000000     0.0484297  
H115     H      0.616810000000     0.958080000000     0.779220000000     0.0396016  
H116     H      0.903010000000     0.947490000000     0.718380000000     0.0390443  
H117     H      0.742020000000     0.029560000000     0.830450000000     0.0538824  
H118     H      0.776980000000     0.878370000000     0.715580000000     0.0538759  
H119     H      0.720100000000     0.973460000000     0.898520000000     0.0398397  
H120     H      0.771920000000     0.964080000000     0.640540000000     0.0275986  
H121     H      0.679800000000     0.022300000000     0.764030000000     0.0530182  
H122     H      0.842990000000     0.907060000000     0.767930000000     0.047957   
H123     H      0.664780000000     0.911540000000     0.783360000000     0.0276687  
H124     H      0.222010000000     0.038020000000     0.809840000000     0.0412854  
H125     H      0.206690000000     0.049670000000     0.625360000000     0.0293469  
H126     H      0.320910000000     0.918840000000     0.774500000000     0.026079   
H127     H      0.330870000000     0.973360000000     0.704710000000     0.0440539  
H128     H      0.281650000000     0.008490000000     0.650830000000     0.0453125  
H129     H      0.170510000000     0.051600000000     0.725790000000     0.0510863  
H130     H      0.270560000000     0.001190000000     0.876940000000     0.0391612  
H131     H      0.216850000000     0.995350000000     0.589890000000     0.03625    
H132     H      0.348410000000     0.024140000000     0.741860000000     0.0553811  
H133     H      0.169920000000     0.999290000000     0.766840000000     0.0473943  
H134     H      0.381710000000     0.945340000000     0.774510000000     0.0360846  
H135     H      0.105100000000     0.997010000000     0.703070000000     0.0308351  
H136     H      0.284040000000     0.059050000000     0.806990000000     0.0536742  
H137     H      0.251230000000     0.949850000000     0.659800000000     0.0541028  
H138     H      0.252640000000     0.953650000000     0.835510000000     0.0279004  
H139     H      0.289250000000     0.043960000000     0.258280000000     0.0437392  
H140     H      0.104310000000     0.028370000000     0.262640000000     0.0316102  
H141     H      0.251810000000     0.973060000000     0.118370000000     0.0326679  
H142     H      0.184730000000     0.031500000000     0.136860000000     0.0427228  
H143     H      0.135150000000     0.001390000000     0.187780000000     0.0444709  
H144     H      0.264190000000     0.973430000000     0.281220000000     0.0489787  
H145     H      0.359520000000     0.032900000000     0.198160000000     0.0379095  
H146     H      0.082590000000     0.967030000000     0.257120000000     0.040882   
H147     H      0.226510000000     0.080890000000     0.143480000000     0.0488618  
H148     H      0.224110000000     0.927140000000     0.261620000000     0.055465   
H149     H      0.257350000000     0.026540000000     0.079610000000     0.0382776  
H150     H      0.205040000000     0.007850000000     0.338080000000     0.025      
H151     H      0.286190000000     0.085750000000     0.208440000000     0.0489983  
H152     H      0.152170000000     0.941150000000     0.209120000000     0.051118   
H153     H      0.322980000000     0.978130000000     0.202620000000     0.0323027  
H154     H      0.654670000000     0.987990000000     0.268180000000     0.043591   
H155     H      0.818730000000     0.919320000000     0.285780000000     0.0258914  
H156     H      0.715580000000     0.060330000000     0.141170000000     0.0276391  
H157     H      0.772960000000     0.993380000000     0.153810000000     0.0416574  
H158     H      0.818640000000     0.963650000000     0.210150000000     0.0424168  
H159     H      0.705140000000     0.027110000000     0.308700000000     0.0484861  
H160     H      0.595840000000     0.021090000000     0.207630000000     0.0393415  
H161     H      0.874900000000     0.953140000000     0.278540000000     0.0377378  
H162     H      0.725470000000     0.947340000000     0.150790000000     0.049519   
H163     H      0.762390000000     0.057090000000     0.299150000000     0.0553327  
H164     H      0.709510000000     0.016370000000     0.093310000000     0.039052   
H165     H      0.748160000000     0.955020000000     0.348240000000     0.0221971  
H166     H      0.652760000000     0.949060000000     0.217270000000     0.050679   
H167     H      0.830640000000     0.022130000000     0.238190000000     0.0519129  
H168     H      0.647630000000     0.062190000000     0.211760000000     0.0281067  
H169     H      0.039170000000     0.147090000000     0.762820000000     0.0415241  
H170     H      0.054040000000     0.331950000000     0.773920000000     0.0276085  
H171     H      0.920740000000     0.179840000000     0.666780000000     0.0256266  
H172     H      0.967260000000     0.253950000000     0.661680000000     0.0435199  
H173     H      0.005880000000     0.307730000000     0.705180000000     0.0453199  
H174     H      0.059570000000     0.233170000000     0.810120000000     0.0508196  
H175     H      0.014080000000     0.080920000000     0.708010000000     0.0392334  
H176     H      0.999290000000     0.369820000000     0.767800000000     0.0323726  
H177     H      0.023380000000     0.223220000000     0.641100000000     0.0555484  
H178     H      0.007280000000     0.193010000000     0.817450000000     0.048449   
H179     H      0.948330000000     0.186320000000     0.606940000000     0.033751   
H180     H      0.011180000000     0.259250000000     0.880030000000     0.0320077  
H181     H      0.065120000000     0.155440000000     0.703280000000     0.051827   
H182     H      0.949470000000     0.300180000000     0.741680000000     0.052906   
H183     H      0.960580000000     0.116140000000     0.728780000000     0.0290781  
H184     H      0.022760000000     0.693470000000     0.667720000000     0.0447735  
H185     H      0.020360000000     0.704030000000     0.851320000000     0.0333096  
H186     H      0.969820000000     0.839950000000     0.717620000000     0.0318289  
H187     H      0.034630000000     0.810520000000     0.775680000000     0.043207   
H188     H      0.980860000000     0.776570000000     0.819030000000     0.0427617  
H189     H      0.957210000000     0.670240000000     0.702360000000     0.0485474  
H190     H      0.013900000000     0.758300000000     0.602270000000     0.0383179  
H191     H      0.959820000000     0.708400000000     0.878920000000     0.0373757  
H192     H      0.077100000000     0.799510000000     0.727370000000     0.0506308  
H193     H      0.910730000000     0.695410000000     0.740360000000     0.0532288  
H194     H      0.027030000000     0.872140000000     0.707530000000     0.0402898  
H195     H      0.988430000000     0.614470000000     0.760680000000     0.0293149  
H196     H      0.070130000000     0.737340000000     0.668810000000     0.0496792  
H197     H      0.924040000000     0.746910000000     0.808440000000     0.0493847  
H198     H      0.960590000000     0.758450000000     0.642630000000     0.0326211  
H199     H      0.958680000000     0.759070000000     0.151910000000     0.0424076  
H200     H      0.940860000000     0.765920000000     0.335640000000     0.0289334  
H201     H      0.079710000000     0.660650000000     0.178060000000     0.0293996  
H202     H      0.037140000000     0.659080000000     0.254630000000     0.042925   
H203     H      0.995610000000     0.700240000000     0.310330000000     0.0429233  
H204     H      0.934910000000     0.804420000000     0.236900000000     0.0500938  
H205     H      0.983830000000     0.704680000000     0.085210000000     0.0379551  
H206     H      0.995350000000     0.762530000000     0.372790000000     0.0388845  
H207     H      0.979900000000     0.637220000000     0.229410000000     0.0513682  
H208     H      0.988120000000     0.814190000000     0.197450000000     0.0477744  
H209     H      0.052190000000     0.601370000000     0.186770000000     0.0361563  
H210     H      0.977510000000     0.876040000000     0.264120000000     0.0292966  
H211     H      0.933910000000     0.699460000000     0.161760000000     0.0521041  
H212     H      0.048560000000     0.740410000000     0.302440000000     0.0525814  
H213     H      0.037500000000     0.723940000000     0.118720000000     0.0317556  
H214     H      0.939380000000     0.153900000000     0.204860000000     0.0411161  
H215     H      0.962440000000     0.343910000000     0.202530000000     0.0292639  
H216     H      0.031870000000     0.194340000000     0.324750000000     0.0289366  
H217     H      0.971630000000     0.264970000000     0.316510000000     0.0422982  
H218     H      0.012940000000     0.302130000000     0.264830000000     0.0442218  
H219     H      0.939920000000     0.230410000000     0.153890000000     0.0504804  
H220     H      0.951740000000     0.089060000000     0.269050000000     0.0389322  
H221     H      0.026220000000     0.362340000000     0.199830000000     0.0313925  
H222     H      0.921180000000     0.224640000000     0.320250000000     0.0499729  
H223     H      0.994300000000     0.191430000000     0.156900000000     0.0483692  
H224     H      0.988610000000     0.198380000000     0.375200000000     0.039216   
H225     H      0.989310000000     0.259690000000     0.089760000000     0.0306475  
H226     H      0.901380000000     0.164020000000     0.257550000000     0.0490331  
H227     H      0.055790000000     0.278790000000     0.221130000000     0.0534816  
H228     H      0.008440000000     0.121120000000     0.254970000000     0.0308114  
N1       N      0.838640000000     0.651310000000     0.991330000000    -0.174629   
N2       N      0.652100000000     0.833750000000     0.016920000000    -0.171818   
N3       N      0.660160000000     0.141800000000     0.968170000000    -0.174484   
N4       N      0.837640000000     0.320070000000     0.992220000000    -0.169242   
N5       N      0.152520000000     0.648400000000     0.974180000000    -0.174001   
N6       N      0.317700000000     0.844820000000     0.016780000000    -0.169958   
N7       N      0.325520000000     0.145000000000     0.933220000000    -0.171908   
N8       N      0.154450000000     0.316770000000     0.971990000000    -0.169712   
N9       N      0.845590000000     0.947500000000     0.664140000000    -0.170725   
N10      N      0.664360000000     0.961140000000     0.843040000000    -0.16997    
N11      N      0.155760000000     0.992740000000     0.641840000000    -0.174478   
N12      N      0.329320000000     0.972030000000     0.829730000000    -0.17092    
N13      N      0.137820000000     0.977440000000     0.312210000000    -0.171274   
N14      N      0.313060000000     0.018110000000     0.135840000000    -0.169345   
N15      N      0.822330000000     0.979320000000     0.334310000000    -0.172645   
N16      N      0.648760000000     0.019860000000     0.146760000000    -0.170648   
N17      N      0.999760000000     0.319090000000     0.829480000000    -0.176064   
N18      N      0.980480000000     0.129860000000     0.654320000000    -0.171123   
N19      N      0.969830000000     0.649810000000     0.827610000000    -0.171093   
N20      N      0.007840000000     0.819870000000     0.651760000000    -0.169064   
N21      N      0.990340000000     0.825000000000     0.323150000000    -0.174627   
N22      N      0.017980000000     0.649450000000     0.132430000000    -0.169901   
N23      N      0.002720000000     0.317710000000     0.140450000000    -0.174369   
N24      N      0.977170000000     0.138490000000     0.324660000000    -0.169267   
O1       O      0.846460000000     0.974670000000     0.415110000000    -0.361209   
O2       O      0.905160000000     0.979270000000     0.353940000000    -0.357262   
O3       O      0.981500000000     0.113040000000     0.572400000000    -0.361539   
O4       O      0.991540000000     0.050630000000     0.628740000000    -0.356809   
O5       O      0.980770000000     0.117480000000     0.406200000000    -0.364664   
O6       O      0.976670000000     0.057070000000     0.348740000000    -0.351997   
O7       O      0.857710000000     0.957460000000     0.580600000000    -0.348972   
O8       O      0.922800000000     0.966940000000     0.632780000000    -0.353978   
O9       O      0.826200000000     0.037040000000     0.507230000000    -0.34315    
O10      O      0.818520000000     0.913580000000     0.495070000000    -0.511803   
O11      O      0.909260000000     0.131390000000     0.490590000000    -0.513507   
O12      O      0.033180000000     0.155210000000     0.488380000000    -0.32961    
O13      O      0.926380000000     0.031580000000     0.443530000000    -0.468549   
O14      O      0.932450000000     0.029430000000     0.541130000000    -0.610456   
O15      O      0.000330000000     0.839800000000     0.570080000000    -0.358347   
O16      O      0.004950000000     0.900740000000     0.626850000000    -0.351851   
O17      O      0.123230000000     0.982930000000     0.395520000000    -0.359504   
O18      O      0.057680000000     0.981110000000     0.342890000000    -0.352847   
O19      O      0.132280000000     0.993960000000     0.561200000000    -0.354871   
O20      O      0.074280000000     0.980450000000     0.621960000000    -0.354685   
O21      O      0.990470000000     0.842990000000     0.404820000000    -0.365885   
O22      O      0.989210000000     0.905490000000     0.347770000000    -0.352368   
O23      O      0.070180000000     0.826310000000     0.481650000000    -0.51499    
O24      O      0.946930000000     0.801330000000     0.490270000000    -0.329469   
O25      O      0.155980000000     0.921560000000     0.482950000000    -0.34119    
O26      O      0.159080000000     0.045450000000     0.471690000000    -0.513592   
O27      O      0.053050000000     0.925620000000     0.532010000000    -0.610584   
O28      O      0.047100000000     0.927360000000     0.434930000000    -0.466942   
O29      O      0.939930000000     0.917340000000     0.543990000000    -0.475752   
O30      O      0.039680000000     0.039340000000     0.432550000000    -0.62232    
O31      O      0.933720000000     0.919780000000     0.439500000000    -0.622097   
O32      O      0.045870000000     0.038050000000     0.537090000000    -0.474548   
O33      O      0.002410000000     0.400050000000     0.120220000000    -0.36418    
O34      O      0.000410000000     0.342550000000     0.059730000000    -0.353114   
O35      O      0.857140000000     0.568480000000     0.992300000000    -0.359608   
O36      O      0.919600000000     0.624730000000     0.984710000000    -0.35507    
O37      O      0.857030000000     0.401890000000     0.989890000000    -0.364507   
O38      O      0.919500000000     0.343770000000     0.991680000000    -0.352588   
O39      O      0.016060000000     0.567010000000     0.115870000000    -0.35363    
O40      O      0.000290000000     0.623940000000     0.055250000000    -0.354779   
O41      O      0.937830000000     0.491160000000     0.144880000000    -0.345562   
O42      O      0.063120000000     0.478700000000     0.150660000000    -0.512882   
O43      O      0.842800000000     0.483230000000     0.063830000000    -0.513122   
O44      O      0.816250000000     0.486490000000     0.942120000000    -0.32943    
O45      O      0.943620000000     0.434770000000     0.043480000000    -0.469406   
O46      O      0.943600000000     0.533020000000     0.041900000000    -0.610316   
O47      O      0.134650000000     0.565880000000     0.974120000000    -0.360497   
O48      O      0.071460000000     0.623250000000     0.976610000000    -0.354697   
O49      O      0.995990000000     0.400860000000     0.848410000000    -0.367144   
O50      O      0.994110000000     0.342750000000     0.909800000000    -0.355182   
O51      O      0.977410000000     0.567160000000     0.846420000000    -0.350839   
O52      O      0.987640000000     0.624260000000     0.906200000000    -0.353743   
O53      O      0.134920000000     0.399110000000     0.973720000000    -0.363377   
O54      O      0.072780000000     0.342270000000     0.978160000000    -0.352619   
O55      O      0.149670000000     0.482960000000     0.902010000000    -0.514361   
O56      O      0.175420000000     0.481180000000     0.023940000000    -0.330131   
O57      O      0.052370000000     0.491180000000     0.818650000000    -0.341618   
O58      O      0.927560000000     0.478360000000     0.816680000000    -0.514427   
O59      O      0.048290000000     0.532300000000     0.922260000000    -0.611699   
O60      O      0.048510000000     0.433890000000     0.923810000000    -0.467859   
O61      O      0.057100000000     0.535750000000     0.033630000000    -0.474103   
O62      O      0.935370000000     0.431880000000     0.931770000000    -0.622113   
O63      O      0.057180000000     0.430750000000     0.035050000000    -0.621978   
O64      O      0.934320000000     0.536770000000     0.930360000000    -0.476597   
O65      O      0.576320000000     0.125750000000     0.968530000000    -0.364738   
O66      O      0.632790000000     0.062930000000     0.980060000000    -0.354701   
O67      O      0.397370000000     0.014100000000     0.120670000000    -0.358828   
O68      O      0.342840000000     0.009700000000     0.057100000000    -0.354892   
O69      O      0.566220000000     0.015290000000     0.126450000000    -0.362082   
O70      O      0.626860000000     0.005820000000     0.067470000000    -0.355701   
O71      O      0.408090000000     0.127210000000     0.948310000000    -0.350871   
O72      O      0.348570000000     0.069300000000     0.964110000000    -0.354633   
O73      O      0.482130000000     0.160180000000     0.025570000000    -0.344615   
O74      O      0.499690000000     0.153730000000     0.902720000000    -0.511943   
O75      O      0.480220000000     0.089400000000     0.128070000000    -0.513396   
O76      O      0.480480000000     0.970990000000     0.169920000000    -0.330569   
O77      O      0.537000000000     0.056640000000     0.034500000000    -0.468657   
O78      O      0.437470000000     0.059140000000     0.030440000000    -0.608646   
O79      O      0.411590000000     0.972020000000     0.851180000000    -0.361452   
O80      O      0.350690000000     0.984000000000     0.909480000000    -0.354041   
O81      O      0.569690000000     0.855370000000     0.012770000000    -0.365983   
O82      O      0.629210000000     0.914870000000     0.008440000000    -0.35674    
O83      O      0.401000000000     0.861640000000     0.019140000000    -0.355931   
O84      O      0.345260000000     0.921870000000     0.996290000000    -0.35634    
O85      O      0.580140000000     0.967270000000     0.857760000000    -0.362901   
O86      O      0.634600000000     0.974580000000     0.920970000000    -0.353815   
O87      O      0.495250000000     0.896460000000     0.849370000000    -0.514069   
O88      O      0.499180000000     0.015450000000     0.808530000000    -0.330082   
O89      O      0.481820000000     0.823690000000     0.954800000000    -0.343445   
O90      O      0.486390000000     0.834290000000     0.077960000000    -0.514079   
O91      O      0.440910000000     0.929180000000     0.943610000000    -0.610969   
O92      O      0.540060000000     0.926370000000     0.947480000000    -0.47006    
O93      O      0.439920000000     0.039330000000     0.920350000000    -0.47439    
O94      O      0.537500000000     0.946310000000     0.057330000000    -0.623142   
O95      O      0.545660000000     0.036720000000     0.924930000000    -0.622578   
O96      O      0.431130000000     0.949020000000     0.053410000000    -0.475329   
S1       S      0.780890000000     0.642580000000     0.065040000000    -0.0381137  
S2       S      0.728350000000     0.114590000000     0.908690000000    -0.0377014  
S3       S      0.123290000000     0.710760000000     0.037220000000    -0.0183223  
S4       S      0.373480000000     0.190950000000     0.865280000000    -0.0266372  
S5       S      0.789410000000     0.886840000000     0.618550000000    -0.0221539  
S6       S      0.145110000000     0.925010000000     0.705940000000    -0.0299903  
S7       S      0.206270000000     0.927910000000     0.357840000000    -0.0204229  
S8       S      0.757710000000     0.021790000000     0.394200000000    -0.0212519  
S9       S      0.934640000000     0.255110000000     0.850550000000    -0.0297448  
S10      S      0.907280000000     0.604230000000     0.774260000000    -0.0224705  
S11      S      0.056120000000     0.849690000000     0.260240000000    -0.022002   
S12      S      0.065310000000     0.250240000000     0.119060000000    -0.0356399  
Zr1      Zr     0.886890000000     0.970430000000     0.495440000000     1.2924     
Zr2      Zr     0.983770000000     0.080520000000     0.488800000000     1.29086    
Zr3      Zr     0.995470000000     0.876570000000     0.487340000000     1.29268    
Zr4      Zr     0.092680000000     0.986830000000     0.480930000000     1.29175    
Zr5      Zr     0.984330000000     0.980310000000     0.395950000000     1.26461    
Zr6      Zr     0.995460000000     0.976700000000     0.579810000000     1.26451    
Zr7      Zr     0.004880000000     0.483590000000     0.084020000000     1.29203    
Zr8      Zr     0.892690000000     0.484530000000     0.989490000000     1.29277    
Zr9      Zr     0.099300000000     0.482720000000     0.976060000000     1.29254    
Zr10     Zr     0.987370000000     0.483920000000     0.881630000000     1.29317    
Zr11     Zr     0.996180000000     0.390840000000     0.984200000000     1.2651     
Zr12     Zr     0.995580000000     0.575900000000     0.981350000000     1.26627    
Zr13     Zr     0.491070000000     0.092960000000     0.967500000000     1.29008    
Zr14     Zr     0.483520000000     0.010120000000     0.089020000000     1.29212    
Zr15     Zr     0.494120000000     0.975500000000     0.888950000000     1.29329    
Zr16     Zr     0.486140000000     0.892880000000     0.010680000000     1.29446    
Zr17     Zr     0.582260000000     0.990400000000     0.992630000000     1.26782    
Zr18     Zr     0.395320000000     0.995220000000     0.985140000000     1.26349    


