data_structure

_audit_creation_method RASPA-1.0
_audit_creation_date 2023-6-5
_audit_author_name 'Poobodin Mano'

_cell_length_a    26.8795
_cell_length_b    27.0269
_cell_length_c    26.9532
_cell_angle_alpha 89.2565
_cell_angle_beta  89.2563
_cell_angle_gamma 89.2563
_cell_volume      19575.8

_symmetry_cell_setting          triclinic
_symmetry_space_group_name_Hall 'P 1'
_symmetry_space_group_name_H-M  'P 1'
_symmetry_Int_Tables_number     1

_symmetry_equiv_pos_as_xyz 'x,y,z'

loop_
_atom_site_label
_atom_site_type_symbol
_atom_site_fract_x
_atom_site_fract_y
_atom_site_fract_z
_atom_site_charge
C1       C      0.861850000000     0.980280000000     0.368730000000     0.396892   
C2       C      0.006430000000     0.114670000000     0.610120000000     0.400135   
C3       C      0.986680000000     0.099930000000     0.353230000000     0.400515   
C4       C      0.874670000000     0.995230000000     0.626460000000     0.40103    
C5       C      0.991080000000     0.871500000000     0.628080000000     0.399461   
C6       C      0.107360000000     0.972900000000     0.354670000000     0.399029   
C7       C      0.119350000000     0.998350000000     0.611350000000     0.381842   
C8       C      0.979300000000     0.856340000000     0.370370000000     0.396721   
C9       C      0.999260000000     0.347160000000     0.103680000000     0.380754   
C10      C      0.876520000000     0.620880000000     0.017860000000     0.380302   
C11      C      0.865010000000     0.363320000000     0.013680000000     0.38231    
C12      C      0.021290000000     0.603730000000     0.118710000000     0.380642   
C13      C      0.119420000000     0.606480000000     0.992300000000     0.40303    
C14      C      0.964030000000     0.366810000000     0.863710000000     0.377113   
C15      C      0.978490000000     0.623980000000     0.879400000000     0.38051    
C16      C      0.104570000000     0.351630000000     0.959470000000     0.399488   
C17      C      0.613110000000     0.117260000000     0.966010000000     0.39882    
C18      C      0.355730000000     0.996610000000     0.104590000000     0.377025   
C19      C      0.613500000000     0.024060000000     0.111390000000     0.378767   
C20      C      0.354610000000     0.100910000000     0.958540000000     0.38001    
C21      C      0.369910000000     0.957810000000     0.864380000000     0.399061   
C22      C      0.629240000000     0.877760000000     0.013520000000     0.399003   
C23      C      0.370790000000     0.861690000000     0.003450000000     0.379263   
C24      C      0.628520000000     0.973890000000     0.873380000000     0.379214   
C25      C      0.863910000000     0.710240000000     0.035450000000     0.00808943 
C26      C      0.659700000000     0.791880000000     0.023410000000     0.020355   
C27      C      0.720910000000     0.862720000000     0.009660000000     0.339088   
C28      C      0.698360000000     0.765910000000     0.055610000000    -0.119848   
C29      C      0.835650000000     0.750110000000     0.005620000000    -0.0956898  
C30      C      0.760500000000     0.832100000000     0.037740000000    -0.201026   
C31      C      0.780100000000     0.743240000000     0.013030000000     0.00671419 
C32      C      0.749420000000     0.777500000000     0.035210000000     0.050023   
C33      C      0.790350000000     0.653250000000     0.030290000000     0.00869707 
C34      C      0.763270000000     0.692120000000     0.998660000000    -0.0972507  
C35      C      0.778610000000     0.340300000000     0.037580000000     0.011115   
C36      C      0.701320000000     0.138640000000     0.949750000000     0.0184249  
C37      C      0.637370000000     0.205350000000     0.948020000000     0.344208   
C38      C      0.734690000000     0.167440000000     0.984310000000    -0.116073   
C39      C      0.743560000000     0.311320000000     0.004910000000    -0.0957973  
C40      C      0.667180000000     0.237600000000     0.982920000000    -0.201603   
C41      C      0.757200000000     0.256390000000     0.000620000000     0.00649965 
C42      C      0.722140000000     0.222740000000     0.986330000000     0.0464672  
C43      C      0.844540000000     0.275640000000     0.032940000000     0.0106683  
C44      C      0.812470000000     0.241970000000     0.001620000000    -0.0949107  
C45      C      0.348760000000     0.772610000000     0.005490000000     0.00818556 
C46      C      0.139010000000     0.690100000000     0.020110000000     0.0205567  
C47      C      0.208610000000     0.629090000000     0.001840000000     0.343255   
C48      C      0.170530000000     0.732760000000     0.000550000000    -0.119903   
C49      C      0.311670000000     0.743130000000     0.037360000000    -0.0958847  
C50      C      0.241150000000     0.671990000000     0.983400000000    -0.204044   
C51      C      0.258660000000     0.755260000000     0.022180000000     0.00631031 
C52      C      0.225420000000     0.720990000000     0.006110000000     0.0517591  
C53      C      0.282800000000     0.839150000000     0.992870000000     0.00469854 
C54      C      0.246460000000     0.810080000000     0.025680000000    -0.0940475  
C55      C      0.323300000000     0.185480000000     0.939690000000     0.00914492 
C56      C      0.116220000000     0.263900000000     0.935910000000     0.0172852  
C57      C      0.190020000000     0.320790000000     0.936550000000     0.342968   
C58      C      0.148620000000     0.221020000000     0.955940000000    -0.119153   
C59      C      0.285100000000     0.205270000000     0.902850000000    -0.0973773  
C60      C      0.221320000000     0.279450000000     0.959920000000    -0.204598   
C61      C      0.233680000000     0.194390000000     0.922940000000     0.00751094 
C62      C      0.203040000000     0.229530000000     0.943710000000     0.0504552  
C63      C      0.263430000000     0.115990000000     0.962490000000     0.00522067 
C64      C      0.224680000000     0.139350000000     0.927510000000    -0.0951098  
C65      C      0.719080000000     0.980120000000     0.858700000000     0.00383911 
C66      C      0.788210000000     0.988400000000     0.656290000000     0.0178683  
C67      C      0.860400000000     0.997270000000     0.717680000000     0.338074   
C68      C      0.754130000000     0.012430000000     0.694860000000    -0.11759    
C69      C      0.759880000000     0.953410000000     0.828710000000    -0.0951729  
C70      C      0.822490000000     0.017900000000     0.755490000000    -0.200048   
C71      C      0.749450000000     0.961350000000     0.774320000000     0.00843851 
C72      C      0.771880000000     0.997050000000     0.745580000000     0.0496546  
C73      C      0.658740000000     0.964170000000     0.787200000000     0.00773534 
C74      C      0.701410000000     0.937200000000     0.760570000000    -0.0970815  
C75      C      0.141920000000     0.017780000000     0.697980000000     0.0116396  
C76      C      0.348630000000     0.934450000000     0.778410000000     0.0185818  
C77      C      0.282230000000     0.935600000000     0.842630000000     0.34489    
C78      C      0.317720000000     0.966100000000     0.742390000000    -0.117307   
C79      C      0.172210000000     0.985190000000     0.733510000000    -0.0975481  
C80      C      0.247960000000     0.968160000000     0.810780000000    -0.202599   
C81      C      0.227620000000     0.981930000000     0.720170000000     0.00729221 
C82      C      0.262220000000     0.969050000000     0.755640000000     0.0475001  
C83      C      0.207460000000     0.014320000000     0.632470000000     0.0116208  
C84      C      0.241670000000     0.982210000000     0.664960000000    -0.0968729  
C85      C      0.325470000000     0.995110000000     0.191660000000     0.00566357 
C86      C      0.121180000000     0.976620000000     0.264210000000     0.0143663  
C87      C      0.194930000000     0.971160000000     0.324270000000     0.341008   
C88      C      0.154670000000     0.953510000000     0.224000000000    -0.117175   
C89      C      0.283620000000     0.021310000000     0.220280000000    -0.096493   
C90      C      0.225230000000     0.947060000000     0.282560000000    -0.202407   
C91      C      0.234420000000     0.000380000000     0.204900000000     0.00865503 
C92      C      0.207960000000     0.967210000000     0.233280000000     0.0496494  
C93      C      0.265510000000     0.985480000000     0.119470000000     0.00566999 
C94      C      0.224620000000     0.010820000000     0.150660000000    -0.0952507  
C95      C      0.634950000000     0.051040000000     0.196320000000     0.00945286 
C96      C      0.838790000000     0.965560000000     0.281360000000     0.0148584  
C97      C      0.772090000000     0.971270000000     0.345600000000     0.341931   
C98      C      0.810230000000     0.999540000000     0.245530000000    -0.116612   
C99      C      0.665140000000     0.020940000000     0.234120000000    -0.0941488  
C100     C      0.740310000000     0.005340000000     0.312560000000    -0.199554   
C101     C      0.720610000000     0.016100000000     0.221290000000     0.00665956 
C102     C      0.754670000000     0.003840000000     0.257560000000     0.0482305  
C103     C      0.701010000000     0.044050000000     0.131810000000     0.0104519  
C104     C      0.735250000000     0.014090000000     0.166260000000    -0.0943793  
C105     C      0.945280000000     0.345870000000     0.776290000000     0.0106187  
C106     C      0.023760000000     0.137410000000     0.697070000000     0.021869   
C107     C      0.024140000000     0.202930000000     0.631960000000     0.344178   
C108     C      0.991770000000     0.168900000000     0.732270000000    -0.120271   
C109     C      0.977150000000     0.314280000000     0.740960000000    -0.0976453  
C110     C      0.992120000000     0.237780000000     0.663910000000    -0.203494   
C111     C      0.978750000000     0.259070000000     0.754390000000     0.00716528 
C112     C      0.990800000000     0.224090000000     0.719090000000     0.0491066  
C113     C      0.945470000000     0.280080000000     0.841300000000     0.0106157  
C114     C      0.977820000000     0.245450000000     0.809640000000    -0.0967968  
C115     C      0.969950000000     0.656360000000     0.793670000000     0.00784666 
C116     C      0.982680000000     0.859520000000     0.718690000000     0.0141648  
C117     C      0.983710000000     0.785250000000     0.660710000000     0.340467   
C118     C      0.005930000000     0.826810000000     0.759450000000    -0.114588   
C119     C      0.939430000000     0.698260000000     0.770180000000    -0.0979236  
C120     C      0.009000000000     0.755090000000     0.701660000000    -0.200689   
C121     C      0.962260000000     0.746920000000     0.783560000000     0.00913651 
C122     C      0.991840000000     0.773600000000     0.751630000000     0.0480678  
C123     C      0.988890000000     0.714020000000     0.865390000000     0.00616244 
C124     C      0.959640000000     0.755530000000     0.838840000000    -0.0969319  
C125     C      0.042690000000     0.690060000000     0.139660000000     0.0107782  
C126     C      0.968290000000     0.767740000000     0.350190000000     0.0151246  
C127     C      0.961130000000     0.830880000000     0.283120000000     0.34473    
C128     C      0.001790000000     0.734400000000     0.318030000000    -0.114121   
C129     C      0.011550000000     0.724880000000     0.172100000000    -0.0938668  
C130     C      0.995500000000     0.801500000000     0.248380000000    -0.204489   
C131     C      0.012460000000     0.711670000000     0.227430000000     0.00562743 
C132     C      0.000160000000     0.746730000000     0.262530000000     0.0487548  
C133     C      0.045580000000     0.624590000000     0.204760000000     0.00972807 
C134     C      0.016170000000     0.656710000000     0.241720000000    -0.0938687  
C135     C      0.004420000000     0.314150000000     0.189710000000     0.0121182  
C136     C      0.967740000000     0.115650000000     0.264780000000     0.0160574  
C137     C      0.993670000000     0.186280000000     0.320140000000     0.339898   
C138     C      0.996200000000     0.139510000000     0.221040000000    -0.119017   
C139     C      0.966460000000     0.282060000000     0.217130000000    -0.1003     
C140     C      0.024400000000     0.206840000000     0.276890000000    -0.199957   
C141     C      0.974110000000     0.229120000000     0.201020000000     0.00918392 
C142     C      0.999120000000     0.194660000000     0.229050000000     0.0478091  
C143     C      0.000560000000     0.255920000000     0.116620000000     0.0105652  
C144     C      0.964570000000     0.222780000000     0.146260000000    -0.0987997  
F1       F      0.726830000000     0.911800000000     0.022520000000    -0.444835   
F2       F      0.587350000000     0.217270000000     0.953770000000    -0.447052   
F3       F      0.220530000000     0.588020000000     0.973540000000    -0.437646   
F4       F      0.207380000000     0.365370000000     0.953840000000    -0.434664   
F5       F      0.903280000000     0.024950000000     0.721260000000    -0.444219   
F6       F      0.270340000000     0.942750000000     0.892230000000    -0.447025   
F7       F      0.207460000000     0.946940000000     0.368140000000    -0.447079   
F8       F      0.760620000000     0.981580000000     0.394700000000    -0.447768   
F9       F      0.015710000000     0.214450000000     0.582510000000    -0.43475    
F10      F      0.003920000000     0.769720000000     0.615850000000    -0.442603   
F11      F      0.963990000000     0.880610000000     0.270360000000    -0.446396   
F12      F      0.018690000000     0.196710000000     0.363360000000    -0.434699   
H1       H      0.919520000000     0.068330000000     0.560070000000     0.216297   
H2       H      0.066180000000     0.055390000000     0.406800000000     0.210551   
H3       H      0.069320000000     0.911440000000     0.562390000000     0.213851   
H4       H      0.908530000000     0.907250000000     0.427340000000     0.210329   
H5       H      0.082420000000     0.143490000000     0.466750000000     0.132671   
H6       H      0.164430000000     0.068010000000     0.467920000000     0.195361   
H7       H      0.143890000000     0.893350000000     0.459370000000     0.16738    
H8       H      0.071520000000     0.815640000000     0.529300000000     0.224999   
H9       H      0.899020000000     0.826910000000     0.503260000000     0.126996   
H10      H      0.817910000000     0.901720000000     0.501750000000     0.194614   
H11      H      0.835810000000     0.073650000000     0.461300000000     0.158947   
H12      H      0.916000000000     0.161090000000     0.516560000000     0.219152   
H13      H      0.073070000000     0.817010000000     0.467220000000     0.211544   
H14      H      0.782610000000     0.952670000000     0.509060000000     0.224968   
H15      H      0.905010000000     0.150450000000     0.456700000000     0.215193   
H16      H      0.199970000000     0.017000000000     0.473910000000     0.222667   
H17      H      0.929890000000     0.553470000000     0.083270000000     0.206386   
H18      H      0.898550000000     0.422090000000     0.924040000000     0.203655   
H19      H      0.058990000000     0.558280000000     0.908890000000     0.212127   
H20      H      0.074640000000     0.401560000000     0.050670000000     0.207093   
H21      H      0.822030000000     0.505530000000     0.925370000000     0.127848   
H22      H      0.876010000000     0.498240000000     0.837600000000     0.186141   
H23      H      0.051830000000     0.462860000000     0.824140000000     0.149866   
H24      H      0.152840000000     0.520910000000     0.890750000000     0.223315   
H25      H      0.163810000000     0.463070000000     0.052980000000     0.127825   
H26      H      0.105140000000     0.460860000000     0.143740000000     0.190702   
H27      H      0.924240000000     0.451730000000     0.154780000000     0.147598   
H28      H      0.850850000000     0.506220000000     0.110720000000     0.195034   
H29      H      0.139900000000     0.462380000000     0.876700000000     0.218411   
H30      H      0.061970000000     0.464590000000     0.188930000000     0.205734   
H31      H      0.803780000000     0.481780000000     0.079730000000     0.204618   
H32      H      0.919850000000     0.508210000000     0.794050000000     0.203987   
H33      H      0.411660000000     0.073290000000     0.046110000000     0.210187   
H34      H      0.566730000000     0.932610000000     0.081270000000     0.206685   
H35      H      0.431760000000     0.897350000000     0.925560000000     0.209618   
H36      H      0.565170000000     0.056120000000     0.899670000000     0.206314   
H37      H      0.495960000000     0.930670000000     0.163450000000     0.125617   
H38      H      0.492100000000     0.842670000000     0.111770000000     0.187628   
H39      H      0.534250000000     0.827280000000     0.931760000000     0.147402   
H40      H      0.487340000000     0.868390000000     0.852820000000     0.194863   
H41      H      0.498420000000     0.052730000000     0.816090000000     0.126866   
H42      H      0.491420000000     0.141760000000     0.867090000000     0.192486   
H43      H      0.507640000000     0.157940000000     0.043470000000     0.159468   
H44      H      0.441020000000     0.093830000000     0.142570000000     0.200944   
H45      H      0.525360000000     0.895950000000     0.811690000000     0.204524   
H46      H      0.477530000000     0.185800000000     0.908330000000     0.224889   
H47      H      0.501410000000     0.106170000000     0.134270000000     0.204901   
H48      H      0.507600000000     0.796930000000     0.072990000000     0.203988   
H49      H      0.849680000000     0.786180000000     0.017640000000     0.0448742  
H50      H      0.660920000000     0.775590000000     0.985710000000     0.0270947  
H51      H      0.778570000000     0.657720000000     0.069710000000     0.0301775  
H52      H      0.722590000000     0.686580000000     0.000350000000     0.0454806  
H53      H      0.690390000000     0.726000000000     0.059760000000     0.0494933  
H54      H      0.796940000000     0.842640000000     0.021770000000     0.0882084  
H55      H      0.904240000000     0.713670000000     0.026720000000     0.0411593  
H56      H      0.622490000000     0.783870000000     0.039890000000     0.0347212  
H57      H      0.773790000000     0.686160000000     0.959120000000     0.0543366  
H58      H      0.760360000000     0.843120000000     0.077360000000     0.0978425  
H59      H      0.778570000000     0.616030000000     0.018380000000     0.0418166  
H60      H      0.728880000000     0.859710000000     0.969200000000    -0.0167653  
H61      H      0.845160000000     0.746410000000     0.965560000000     0.0520317  
H62      H      0.695020000000     0.780700000000     0.093860000000     0.0580941  
H63      H      0.858880000000     0.718190000000     0.075620000000     0.0306701  
H64      H      0.706010000000     0.316550000000     0.021820000000     0.0480277  
H65      H      0.712320000000     0.147870000000     0.910800000000     0.0256323  
H66      H      0.838280000000     0.265750000000     0.072740000000     0.0282109  
H67      H      0.818110000000     0.204320000000     0.017630000000     0.042731   
H68      H      0.773070000000     0.160490000000     0.970270000000     0.0484377  
H69      H      0.662450000000     0.275960000000     0.968420000000     0.0905709  
H70      H      0.769880000000     0.380410000000     0.033230000000     0.0383613  
H71      H      0.708840000000     0.098420000000     0.955200000000     0.0425133  
H72      H      0.827100000000     0.242300000000     0.962850000000     0.0505803  
H73      H      0.650400000000     0.235530000000     0.020800000000     0.100059   
H74      H      0.884410000000     0.267770000000     0.024420000000     0.0397242  
H75      H      0.648550000000     0.214930000000     0.909200000000    -0.0181993  
H76      H      0.743590000000     0.328160000000     0.967060000000     0.0536772  
H77      H      0.731430000000     0.151570000000     0.022450000000     0.0589298  
H78      H      0.771010000000     0.329930000000     0.077030000000     0.029995   
H79      H      0.321830000000     0.703420000000     0.037160000000     0.0487825  
H80      H      0.142340000000     0.688130000000     0.061210000000     0.027135   
H81      H      0.275500000000     0.830700000000     0.953340000000     0.0490273  
H82      H      0.208930000000     0.821060000000     0.013070000000     0.0470817  
H83      H      0.157880000000     0.764970000000     0.022510000000     0.0490702  
H84      H      0.280470000000     0.661410000000     0.989060000000     0.09528    
H85      H      0.386670000000     0.766030000000     0.020380000000     0.0421156  
H86      H      0.099540000000     0.699630000000     0.012130000000     0.03953    
H87      H      0.249800000000     0.821900000000     0.064840000000     0.0520079  
H88      H      0.236890000000     0.675810000000     0.942540000000     0.101523   
H89      H      0.274450000000     0.879160000000     0.998050000000     0.0618788  
H90      H      0.218220000000     0.620490000000     0.041050000000    -0.0123304  
H91      H      0.315890000000     0.754410000000     0.076600000000     0.0540517  
H92      H      0.162310000000     0.740200000000     0.960810000000     0.0590729  
H93      H      0.348450000000     0.758010000000     0.967110000000     0.0355396  
H94      H      0.291370000000     0.244700000000     0.893340000000     0.0514077  
H95      H      0.114500000000     0.260750000000     0.894850000000     0.0279557  
H96      H      0.253840000000     0.126840000000     0.001150000000     0.0332087  
H97      H      0.187420000000     0.129440000000     0.942030000000     0.0448866  
H98      H      0.134060000000     0.187070000000     0.939120000000     0.0483731  
H99      H      0.261170000000     0.286320000000     0.952410000000     0.0985238  
H100     H      0.360940000000     0.192250000000     0.923650000000     0.0430412  
H101     H      0.077760000000     0.258720000000     0.950520000000     0.0392369  
H102     H      0.228700000000     0.122410000000     0.890270000000     0.0544622  
H103     H      0.216950000000     0.281330000000     0.000950000000     0.0995499  
H104     H      0.259900000000     0.075120000000     0.960730000000     0.0530873  
H105     H      0.196010000000     0.320220000000     0.895640000000    -0.0151068  
H106     H      0.290600000000     0.185440000000     0.867240000000     0.0558865  
H107     H      0.143730000000     0.217860000000     0.996870000000     0.0555937  
H108     H      0.319970000000     0.206800000000     0.974630000000     0.0361681  
H109     H      0.796780000000     0.965360000000     0.840950000000     0.0472228  
H110     H      0.781830000000     0.947810000000     0.656590000000     0.0293377  
H111     H      0.653860000000     0.001620000000     0.770230000000     0.0333986  
H112     H      0.695050000000     0.935290000000     0.720140000000     0.0447852  
H113     H      0.714660000000     0.004310000000     0.687680000000     0.0512119  
H114     H      0.836630000000     0.011100000000     0.793230000000     0.0886472  
H115     H      0.723610000000     0.969330000000     0.898370000000     0.0566749  
H116     H      0.776880000000     0.002860000000     0.619250000000     0.0418001  
H117     H      0.702060000000     0.897930000000     0.773490000000     0.0521507  
H118     H      0.820440000000     0.058860000000     0.751120000000     0.0975132  
H119     H      0.624020000000     0.943470000000     0.780530000000     0.0372233  
H120     H      0.869840000000     0.958470000000     0.728580000000    -0.0153034  
H121     H      0.758550000000     0.913170000000     0.837740000000     0.0542413  
H122     H      0.756790000000     0.053320000000     0.690690000000     0.0601141  
H123     H      0.725200000000     0.020700000000     0.855880000000     0.0356821  
H124     H      0.165900000000     0.001600000000     0.770610000000     0.0472956  
H125     H      0.341060000000     0.894810000000     0.771210000000     0.0270669  
H126     H      0.216700000000     0.053830000000     0.638310000000     0.0330939  
H127     H      0.279510000000     0.997050000000     0.658410000000     0.0459445  
H128     H      0.324120000000     0.949240000000     0.705510000000     0.0504501  
H129     H      0.210190000000     0.953040000000     0.817010000000     0.0883292  
H130     H      0.101750000000     0.012850000000     0.706660000000     0.0453307  
H131     H      0.388670000000     0.940430000000     0.769930000000     0.0405605  
H132     H      0.241080000000     0.943490000000     0.651580000000     0.0555245  
H133     H      0.248410000000     0.006710000000     0.824660000000     0.0995397  
H134     H      0.215720000000     0.006040000000     0.592920000000     0.0421725  
H135     H      0.274310000000     0.896290000000     0.834190000000    -0.0196369  
H136     H      0.156850000000     0.947200000000     0.733950000000     0.0550511  
H137     H      0.332610000000     0.004280000000     0.741320000000     0.0603882  
H138     H      0.150620000000     0.057170000000     0.705270000000     0.0316459  
H139     H      0.290180000000     0.019930000000     0.260740000000     0.0500819  
H140     H      0.117490000000     0.017010000000     0.256400000000     0.0312171  
H141     H      0.259690000000     0.944810000000     0.120960000000     0.0355426  
H142     H      0.188150000000     0.998790000000     0.137330000000     0.0434604  
H143     H      0.140140000000     0.964970000000     0.187480000000     0.0502646  
H144     H      0.265630000000     0.950550000000     0.288860000000     0.0922893  
H145     H      0.361030000000     0.013200000000     0.200900000000     0.0423561  
H146     H      0.083460000000     0.960740000000     0.260520000000     0.0539777  
H147     H      0.225890000000     0.051430000000     0.143660000000     0.050628   
H148     H      0.218580000000     0.906500000000     0.283870000000     0.0996758  
H149     H      0.260640000000     0.997620000000     0.080230000000     0.044836   
H150     H      0.206150000000     0.010470000000     0.327220000000    -0.0168135  
H151     H      0.284290000000     0.061370000000     0.210290000000     0.0526255  
H152     H      0.151260000000     0.912560000000     0.226010000000     0.0589857  
H153     H      0.328130000000     0.956000000000     0.204820000000     0.0361736  
H154     H      0.659120000000     0.040160000000     0.269870000000     0.0481877  
H155     H      0.828940000000     0.926600000000     0.273420000000     0.038327   
H156     H      0.709830000000     0.083940000000     0.135580000000     0.0303687  
H157     H      0.772910000000     0.029360000000     0.159600000000     0.0470795  
H158     H      0.817300000000     0.983740000000     0.208300000000     0.0532199  
H159     H      0.701510000000     0.993230000000     0.319220000000     0.0898398  
H160     H      0.594730000000     0.046420000000     0.204940000000     0.0420626  
H161     H      0.879190000000     0.969260000000     0.273110000000     0.0607352  
H162     H      0.735540000000     0.974760000000     0.154680000000     0.0635051  
H163     H      0.743530000000     0.044100000000     0.325310000000     0.100205   
H164     H      0.709710000000     0.033850000000     0.092820000000     0.0546555  
H165     H      0.761060000000     0.932420000000     0.338720000000    -0.0168601  
H166     H      0.649400000000     0.983190000000     0.237460000000     0.0547523  
H167     H      0.826450000000     0.037150000000     0.246220000000     0.0586024  
H168     H      0.643460000000     0.090880000000     0.201080000000     0.0308359  
H169     H      0.961020000000     0.320920000000     0.703750000000     0.0490099  
H170     H      0.063590000000     0.144250000000     0.705090000000     0.0272244  
H171     H      0.905740000000     0.271940000000     0.834090000000     0.0291914  
H172     H      0.962330000000     0.208110000000     0.816420000000     0.0452326  
H173     H      0.007580000000     0.161890000000     0.769540000000     0.0532367  
H174     H      0.008020000000     0.275020000000     0.657470000000     0.0937544  
H175     H      0.952580000000     0.385540000000     0.768060000000     0.0379756  
H176     H      0.016950000000     0.097770000000     0.705860000000     0.0545217  
H177     H      0.016590000000     0.245730000000     0.823500000000     0.053316   
H178     H      0.953320000000     0.238080000000     0.650100000000     0.101821   
H179     H      0.952130000000     0.271320000000     0.881080000000     0.0392328  
H180     H      0.063900000000     0.210610000000     0.639500000000    -0.0130733  
H181     H      0.015860000000     0.328280000000     0.740540000000     0.0562905  
H182     H      0.952970000000     0.155170000000     0.732240000000     0.0721391  
H183     H      0.905400000000     0.339300000000     0.768290000000     0.0300374  
H184     H      0.935120000000     0.692960000000     0.729770000000     0.0502973  
H185     H      0.942040000000     0.863100000000     0.726420000000     0.0352955  
H186     H      0.029320000000     0.719900000000     0.858650000000     0.0348621  
H187     H      0.974380000000     0.791310000000     0.850850000000     0.043942   
H188     H      0.993740000000     0.842120000000     0.795450000000     0.0496346  
H189     H      0.003790000000     0.714990000000     0.696110000000     0.0946031  
H190     H      0.951190000000     0.620980000000     0.785710000000     0.0402024  
H191     H      0.998470000000     0.897140000000     0.721960000000     0.0488412  
H192     H      0.920110000000     0.754540000000     0.851490000000     0.050941   
H193     H      0.049880000000     0.760460000000     0.698330000000     0.0984658  
H194     H      0.982040000000     0.717800000000     0.905950000000     0.0412365  
H195     H      0.943340000000     0.776740000000     0.661110000000    -0.0131377  
H196     H      0.900940000000     0.696900000000     0.785780000000     0.0537779  
H197     H      0.047120000000     0.829900000000     0.757440000000     0.0570018  
H198     H      0.007340000000     0.654900000000     0.775520000000     0.0363011  
H199     H      0.027040000000     0.762150000000     0.164710000000     0.0449907  
H200     H      0.929000000000     0.756500000000     0.345160000000     0.0298782  
H201     H      0.085970000000     0.630700000000     0.210400000000     0.032191   
H202     H      0.035270000000     0.651360000000     0.277670000000     0.0457629  
H203     H      0.989180000000     0.696200000000     0.326120000000     0.0496838  
H204     H      0.979410000000     0.806960000000     0.211000000000     0.0890922  
H205     H      0.034940000000     0.698660000000     0.100060000000     0.0395297  
H206     H      0.977500000000     0.760570000000     0.389720000000     0.0445485  
H207     H      0.977810000000     0.642130000000     0.245570000000     0.0517351  
H208     H      0.033220000000     0.817890000000     0.248340000000     0.100551   
H209     H      0.038270000000     0.585040000000     0.213550000000     0.0402496  
H210     H      0.922270000000     0.819150000000     0.276370000000    -0.0194747  
H211     H      0.972330000000     0.724660000000     0.159520000000     0.0515508  
H212     H      0.040870000000     0.737520000000     0.330470000000     0.0588746  
H213     H      0.082690000000     0.697960000000     0.145640000000     0.0291667  
H214     H      0.967790000000     0.287320000000     0.257790000000     0.0527092  
H215     H      0.927710000000     0.126020000000     0.261550000000     0.0290455  
H216     H      0.038820000000     0.240230000000     0.120310000000     0.0303396  
H217     H      0.969190000000     0.184570000000     0.132760000000     0.0429057  
H218     H      0.977320000000     0.128970000000     0.186670000000     0.0489462  
H219     H      0.032020000000     0.246640000000     0.281740000000     0.0954521  
H220     H      0.998200000000     0.353130000000     0.201080000000     0.0380374  
H221     H      0.970330000000     0.074840000000     0.260710000000     0.044581   
H222     H      0.925670000000     0.234460000000     0.138120000000     0.051078   
H223     H      0.061680000000     0.188440000000     0.277110000000     0.0967041  
H224     H      0.990790000000     0.254030000000     0.076770000000     0.0394591  
H225     H      0.957010000000     0.205830000000     0.321320000000    -0.0145184  
H226     H      0.928500000000     0.294660000000     0.206360000000     0.0553863  
H227     H      0.034510000000     0.123560000000     0.219210000000     0.0571188  
H228     H      0.042490000000     0.302900000000     0.201430000000     0.0315597  
N1       N      0.669030000000     0.845750000000     0.019080000000    -0.198181   
N2       N      0.844740000000     0.660130000000     0.025990000000    -0.16923    
N3       N      0.648680000000     0.152510000000     0.957310000000    -0.200601   
N4       N      0.830580000000     0.327860000000     0.025240000000    -0.169694   
N5       N      0.154870000000     0.641810000000     0.999620000000    -0.198623   
N6       N      0.335130000000     0.825820000000     0.003820000000    -0.165805   
N7       N      0.136380000000     0.313150000000     0.947620000000    -0.19928    
N8       N      0.314900000000     0.132420000000     0.951030000000    -0.166804   
N9       N      0.841680000000     0.997290000000     0.665780000000    -0.196347   
N10      N      0.668110000000     0.969590000000     0.841060000000    -0.167694   
N11      N      0.334850000000     0.945360000000     0.830150000000    -0.200074   
N12      N      0.154980000000     0.006850000000     0.646120000000    -0.167169   
N13      N      0.140380000000     0.969690000000     0.315400000000    -0.195982   
N14      N      0.316330000000     0.995740000000     0.137480000000    -0.168054   
N15      N      0.825590000000     0.976060000000     0.333430000000    -0.197189   
N16      N      0.648490000000     0.036800000000     0.145470000000    -0.166805   
N17      N      0.014440000000     0.150600000000     0.644810000000    -0.196497   
N18      N      0.954680000000     0.332180000000     0.828280000000    -0.16956    
N19      N      0.989700000000     0.839330000000     0.667990000000    -0.197205   
N20      N      0.976160000000     0.663980000000     0.847620000000    -0.168288   
N21      N      0.972990000000     0.820180000000     0.335570000000    -0.199035   
N22      N      0.033370000000     0.638190000000     0.153370000000    -0.168246   
N23      N      0.985420000000     0.132440000000     0.313720000000    -0.199228   
N24      N      0.000190000000     0.307280000000     0.135530000000    -0.169867   
O1       O      0.848400000000     0.982790000000     0.414990000000    -0.322133   
O2       O      0.907880000000     0.979950000000     0.354020000000    -0.344621   
O3       O      0.005690000000     0.127450000000     0.563630000000    -0.313129   
O4       O      0.001310000000     0.069470000000     0.625630000000    -0.340867   
O5       O      0.990990000000     0.117740000000     0.397280000000    -0.32238    
O6       O      0.983390000000     0.053170000000     0.344450000000    -0.355877   
O7       O      0.856840000000     0.991400000000     0.582220000000    -0.359218   
O8       O      0.921730000000     0.996470000000     0.635540000000    -0.317213   
O9       O      0.834240000000     0.060890000000     0.495870000000    -0.330681   
O10      O      0.814900000000     0.937290000000     0.503990000000    -0.506725   
O11      O      0.924570000000     0.144450000000     0.486040000000    -0.508523   
O12      O      0.049060000000     0.158380000000     0.472730000000    -0.26789    
O13      O      0.933370000000     0.040700000000     0.440220000000    -0.472338   
O14      O      0.938240000000     0.046140000000     0.538860000000    -0.615252   
O15      O      0.986890000000     0.853580000000     0.584000000000    -0.319966   
O16      O      0.995550000000     0.918230000000     0.636600000000    -0.353522   
O17      O      0.125070000000     0.976280000000     0.398970000000    -0.327857   
O18      O      0.060240000000     0.973630000000     0.345310000000    -0.349009   
O19      O      0.133140000000     0.995700000000     0.565150000000    -0.350812   
O20      O      0.073620000000     0.995000000000     0.626390000000    -0.34933    
O21      O      0.980970000000     0.843100000000     0.416800000000    -0.361872   
O22      O      0.981740000000     0.901850000000     0.355340000000    -0.310534   
O23      O      0.058060000000     0.827460000000     0.498190000000    -0.511609   
O24      O      0.932990000000     0.812530000000     0.505530000000    -0.305194   
O25      O      0.147150000000     0.910390000000     0.491440000000    -0.33284    
O26      O      0.167470000000     0.032680000000     0.473240000000    -0.50948    
O27      O      0.048350000000     0.930830000000     0.540480000000    -0.612853   
O28      O      0.043820000000     0.925000000000     0.441570000000    -0.468819   
O29      O      0.935230000000     0.933820000000     0.550590000000    -0.47753    
O30      O      0.046390000000     0.037150000000     0.430790000000    -0.626993   
O31      O      0.930460000000     0.928070000000     0.445730000000    -0.62918    
O32      O      0.051640000000     0.043440000000     0.535680000000    -0.476175   
O33      O      0.003830000000     0.390920000000     0.122090000000    -0.363435   
O34      O      0.994040000000     0.338970000000     0.056970000000    -0.356065   
O35      O      0.857890000000     0.576990000000     0.015200000000    -0.357015   
O36      O      0.923510000000     0.629740000000     0.013720000000    -0.357288   
O37      O      0.851050000000     0.409350000000     0.015460000000    -0.357963   
O38      O      0.909860000000     0.348980000000     0.002890000000    -0.353042   
O39      O      0.021760000000     0.557360000000     0.131810000000    -0.351855   
O40      O      0.011250000000     0.619340000000     0.074360000000    -0.350862   
O41      O      0.946050000000     0.480370000000     0.160110000000    -0.346383   
O42      O      0.070820000000     0.465170000000     0.154060000000    -0.514324   
O43      O      0.837630000000     0.493350000000     0.080390000000    -0.510154   
O44      O      0.811350000000     0.496220000000     0.959490000000    -0.336713   
O45      O      0.940630000000     0.435380000000     0.052630000000    -0.467572   
O46      O      0.945680000000     0.532590000000     0.058700000000    -0.612441   
O47      O      0.133440000000     0.560640000000     0.987690000000    -0.316735   
O48      O      0.073340000000     0.620710000000     0.993080000000    -0.359595   
O49      O      0.964510000000     0.413150000000     0.850450000000    -0.362676   
O50      O      0.970590000000     0.351440000000     0.908810000000    -0.356203   
O51      O      0.971830000000     0.580340000000     0.861360000000    -0.354588   
O52      O      0.988100000000     0.631830000000     0.925500000000    -0.356148   
O53      O      0.122520000000     0.395720000000     0.961970000000    -0.318134   
O54      O      0.058010000000     0.341990000000     0.966700000000    -0.358402   
O55      O      0.137450000000     0.489780000000     0.899310000000    -0.509184   
O56      O      0.172560000000     0.467550000000     0.017420000000    -0.275874   
O57      O      0.036430000000     0.496330000000     0.824090000000    -0.337507   
O58      O      0.910630000000     0.501770000000     0.828280000000    -0.513219   
O59      O      0.040580000000     0.536080000000     0.930440000000    -0.610235   
O60      O      0.035770000000     0.438310000000     0.924340000000    -0.469922   
O61      O      0.058070000000     0.530380000000     0.042080000000    -0.476199   
O62      O      0.923000000000     0.440930000000     0.941430000000    -0.623527   
O63      O      0.052740000000     0.425780000000     0.035420000000    -0.624525   
O64      O      0.928410000000     0.546120000000     0.947260000000    -0.476896   
O65      O      0.566700000000     0.129980000000     0.961970000000    -0.323459   
O66      O      0.627960000000     0.072610000000     0.976260000000    -0.35528    
O67      O      0.400200000000     0.001030000000     0.122040000000    -0.357105   
O68      O      0.346510000000     0.991780000000     0.057950000000    -0.350997   
O69      O      0.567380000000     0.021900000000     0.125910000000    -0.358378   
O70      O      0.628290000000     0.015630000000     0.066400000000    -0.341748   
O71      O      0.399040000000     0.118810000000     0.954780000000    -0.353768   
O72      O      0.345630000000     0.055200000000     0.969740000000    -0.347378   
O73      O      0.475500000000     0.156990000000     0.026000000000    -0.33009    
O74      O      0.484490000000     0.151500000000     0.900880000000    -0.507569   
O75      O      0.473660000000     0.084230000000     0.130370000000    -0.513639   
O76      O      0.488370000000     0.965810000000     0.170690000000    -0.327933   
O77      O      0.534110000000     0.057730000000     0.034050000000    -0.469671   
O78      O      0.435830000000     0.051390000000     0.030750000000    -0.611472   
O79      O      0.416000000000     0.960090000000     0.849810000000    -0.360553   
O80      O      0.355500000000     0.965480000000     0.909560000000    -0.311364   
O81      O      0.584800000000     0.859780000000     0.016550000000    -0.36871    
O82      O      0.637990000000     0.924000000000     0.004890000000    -0.314571   
O83      O      0.416890000000     0.848570000000     0.009950000000    -0.352259   
O84      O      0.356450000000     0.906770000000     0.995060000000    -0.342069   
O85      O      0.584040000000     0.969740000000     0.855980000000    -0.361326   
O86      O      0.637660000000     0.982940000000     0.919310000000    -0.345934   
O87      O      0.505170000000     0.897340000000     0.841580000000    -0.511124   
O88      O      0.498840000000     0.017280000000     0.807250000000    -0.331718   
O89      O      0.506070000000     0.819130000000     0.954300000000    -0.340582   
O90      O      0.499610000000     0.831380000000     0.078600000000    -0.516168   
O91      O      0.450350000000     0.922250000000     0.942470000000    -0.614463   
O92      O      0.547950000000     0.928010000000     0.945520000000    -0.468077   
O93      O      0.438260000000     0.032630000000     0.919000000000    -0.476693   
O94      O      0.544890000000     0.947320000000     0.056830000000    -0.625025   
O95      O      0.543880000000     0.038750000000     0.923010000000    -0.625911   
O96      O      0.439040000000     0.940450000000     0.053510000000    -0.476935   
Zr1      Zr     0.887990000000     0.987630000000     0.496510000000     1.30502    
Zr2      Zr     0.994490000000     0.087750000000     0.483140000000     1.31545    
Zr3      Zr     0.987520000000     0.883460000000     0.497800000000     1.30511    
Zr4      Zr     0.093850000000     0.983660000000     0.484450000000     1.30489    
Zr5      Zr     0.986380000000     0.980290000000     0.397680000000     1.27764    
Zr6      Zr     0.995340000000     0.991050000000     0.583090000000     1.27173    
Zr7      Zr     0.007230000000     0.477110000000     0.092740000000     1.29623    
Zr8      Zr     0.888310000000     0.491440000000     0.005970000000     1.29314    
Zr9      Zr     0.092920000000     0.480380000000     0.977010000000     1.31378    
Zr10     Zr     0.974000000000     0.493930000000     0.890370000000     1.28818    
Zr11     Zr     0.985940000000     0.393530000000     0.985920000000     1.26822    
Zr12     Zr     0.995350000000     0.577530000000     0.997290000000     1.26524    
Zr13     Zr     0.485100000000     0.090260000000     0.966620000000     1.30225    
Zr14     Zr     0.485800000000     0.006100000000     0.089480000000     1.29288    
Zr15     Zr     0.497760000000     0.973560000000     0.886740000000     1.29368    
Zr16     Zr     0.498430000000     0.889240000000     0.009880000000     1.2934     
Zr17     Zr     0.584580000000     0.995580000000     0.991180000000     1.27782    
Zr18     Zr     0.399310000000     0.984090000000     0.984950000000     1.27543    


