data_structure

_audit_creation_method RASPA-1.0
_audit_creation_date 2023-5-22
_audit_author_name 'Poobodin Mano'

_cell_length_a    26.4414
_cell_length_b    26.1585
_cell_length_c    25.0626
_cell_angle_alpha 89.2565
_cell_angle_beta  89.2563
_cell_angle_gamma 89.2563
_cell_volume      17330.6

_symmetry_cell_setting          triclinic
_symmetry_space_group_name_Hall 'P 1'
_symmetry_space_group_name_H-M  'P 1'
_symmetry_Int_Tables_number     1

_symmetry_equiv_pos_as_xyz 'x,y,z'

loop_
_atom_site_label
_atom_site_type_symbol
_atom_site_fract_x
_atom_site_fract_y
_atom_site_fract_z
_atom_site_charge
C1       C      0.895640000000     0.079270000000     0.392760000000     0.379297   
C2       C      0.071730000000     0.098150000000     0.671750000000     0.380535   
C3       C      0.060180000000     0.120350000000     0.394660000000     0.380289   
C4       C      0.888900000000     0.060570000000     0.670550000000     0.382367   
C5       C      0.933870000000     0.890440000000     0.664290000000     0.380526   
C6       C      0.107300000000     0.943480000000     0.387590000000     0.380397   
C7       C      0.101790000000     0.927100000000     0.665180000000     0.38116    
C8       C      0.939500000000     0.902010000000     0.386320000000     0.380255   
C9       C      0.959700000000     0.379240000000     0.162540000000     0.379386   
C10      C      0.881930000000     0.634300000000     0.968630000000     0.382769   
C11      C      0.883030000000     0.370140000000     0.008790000000     0.382803   
C12      C      0.944710000000     0.645140000000     0.138480000000     0.378232   
C13      C      0.104980000000     0.643500000000     0.080760000000     0.381123   
C14      C      0.043300000000     0.366010000000     0.914630000000     0.376843   
C15      C      0.036620000000     0.632450000000     0.894770000000     0.381247   
C16      C      0.121210000000     0.377070000000     0.078880000000     0.378225   
C17      C      0.637410000000     0.109670000000     0.978820000000     0.37695    
C18      C      0.368420000000     0.031950000000     0.153100000000     0.380001   
C19      C      0.631970000000     0.018220000000     0.150720000000     0.37619    
C20      C      0.374320000000     0.130620000000     0.991340000000     0.381355   
C21      C      0.367360000000     0.990050000000     0.894960000000     0.38195    
C22      C      0.624790000000     0.868820000000     0.054480000000     0.379481   
C23      C      0.361340000000     0.886170000000     0.055440000000     0.380875   
C24      C      0.629650000000     0.959200000000     0.895890000000     0.379162   
C25      C      0.797210000000     0.660170000000     0.934940000000     0.0110788  
C26      C      0.714240000000     0.845830000000     0.073280000000     0.0131826  
C27      C      0.651060000000     0.777590000000     0.064890000000     0.0115193  
C28      C      0.748130000000     0.824160000000     0.029070000000    -0.100135   
C29      C      0.760290000000     0.683380000000     0.975620000000    -0.0972068  
C30      C      0.681510000000     0.751380000000     0.020280000000    -0.100164   
C31      C      0.772790000000     0.738240000000     0.991100000000     0.0163183  
C32      C      0.736710000000     0.768520000000     0.015840000000     0.0159597  
C33      C      0.861670000000     0.725730000000     0.948890000000     0.0118802  
C34      C      0.828250000000     0.754950000000     0.988790000000    -0.0970543  
C35      C      0.667480000000     0.183690000000     0.925160000000     0.0120874  
C36      C      0.860700000000     0.279340000000     0.026000000000     0.00948253 
C37      C      0.793910000000     0.343290000000     0.001400000000     0.00944007 
C38      C      0.840760000000     0.241200000000     0.985760000000    -0.0975359  
C39      C      0.697510000000     0.227960000000     0.946630000000    -0.0992306  
C40      C      0.773310000000     0.308520000000     0.958740000000    -0.0989213  
C41      C      0.751860000000     0.214170000000     0.961720000000     0.017059   
C42      C      0.785790000000     0.252430000000     0.970840000000     0.0161736  
C43      C      0.728860000000     0.118440000000     0.956720000000     0.0110796  
C44      C      0.764810000000     0.158840000000     0.977520000000    -0.0974133  
C45      C      0.330410000000     0.799570000000     0.078990000000     0.0113622  
C46      C      0.110280000000     0.735600000000     0.102540000000     0.0109197  
C47      C      0.171020000000     0.673380000000     0.141770000000     0.0103733  
C48      C      0.152020000000     0.774510000000     0.090710000000    -0.0989862  
C49      C      0.296310000000     0.785280000000     0.126340000000    -0.101111   
C50      C      0.216630000000     0.706150000000     0.127930000000    -0.0987514  
C51      C      0.241440000000     0.797670000000     0.112960000000     0.0171497  
C52      C      0.203790000000     0.761780000000     0.114270000000     0.0168693  
C53      C      0.269150000000     0.868930000000     0.051200000000     0.00982005 
C54      C      0.233060000000     0.853550000000     0.096840000000    -0.100173   
C55      C      0.143100000000     0.285310000000     0.094800000000     0.0118916  
C56      C      0.349030000000     0.221640000000     0.975880000000     0.012433   
C57      C      0.284470000000     0.154100000000     0.974510000000     0.0135648  
C58      C      0.319680000000     0.252120000000     0.018290000000    -0.100496   
C59      C      0.173500000000     0.254840000000     0.053330000000    -0.098367   
C60      C      0.251210000000     0.180550000000     0.016470000000    -0.100292   
C61      C      0.229370000000     0.269510000000     0.048570000000     0.0156648  
C62      C      0.264200000000     0.236700000000     0.025200000000     0.016432   
C63      C      0.209210000000     0.350680000000     0.101810000000     0.00986563 
C64      C      0.243110000000     0.325070000000     0.059670000000    -0.097889   
C65      C      0.660550000000     0.951010000000     0.802350000000     0.0090929  
C66      C      0.869180000000     0.067490000000     0.767630000000     0.0127961  
C67      C      0.804940000000     0.092660000000     0.701710000000     0.01345    
C68      C      0.835660000000     0.025860000000     0.792450000000    -0.0987158  
C69      C      0.690210000000     0.996630000000     0.780290000000    -0.0971578  
C70      C      0.768620000000     0.050440000000     0.718980000000    -0.0993243  
C71      C      0.744400000000     0.999140000000     0.801160000000     0.0155466  
C72      C      0.780520000000     0.026930000000     0.773820000000     0.017297   
C73      C      0.719560000000     0.936340000000     0.876640000000     0.012239   
C74      C      0.754490000000     0.979420000000     0.858010000000    -0.0983736  
C75      C      0.338330000000     0.981170000000     0.801580000000     0.00959446 
C76      C      0.115460000000     0.905090000000     0.760860000000     0.0128166  
C77      C      0.176840000000     0.875610000000     0.692940000000     0.0128372  
C78      C      0.154990000000     0.935690000000     0.790520000000    -0.0984032  
C79      C      0.304270000000     0.938040000000     0.783490000000    -0.099105   
C80      C      0.220450000000     0.905440000000     0.716180000000    -0.0987145  
C81      C      0.249090000000     0.945310000000     0.801440000000     0.0163023  
C82      C      0.209940000000     0.926510000000     0.772110000000     0.0171532  
C83      C      0.277280000000     0.006850000000     0.872740000000     0.0117374  
C84      C      0.240320000000     0.965050000000     0.858060000000    -0.0996573  
C85      C      0.124440000000     0.932120000000     0.290480000000     0.0117254  
C86      C      0.338090000000     0.035770000000     0.247310000000     0.0103372  
C87      C      0.278030000000     0.051520000000     0.173900000000     0.012401   
C88      C      0.307630000000     0.990810000000     0.269710000000    -0.0981367  
C89      C      0.160330000000     0.969610000000     0.262230000000    -0.0983398  
C90      C      0.243010000000     0.008760000000     0.193090000000    -0.0988076  
C91      C      0.215720000000     0.965980000000     0.279760000000     0.0152646  
C92      C      0.252820000000     0.990580000000     0.250490000000     0.0164209  
C93      C      0.188670000000     0.905400000000     0.355830000000     0.0108259  
C94      C      0.227510000000     0.943860000000     0.335220000000    -0.0980006  
C95      C      0.722900000000     0.007460000000     0.172890000000     0.0105419  
C96      C      0.818980000000     0.128050000000     0.364100000000     0.0109796  
C97      C      0.882220000000     0.100820000000     0.296810000000     0.0116923  
C98      C      0.776080000000     0.099340000000     0.337810000000    -0.098283   
C99      C      0.759600000000     0.048160000000     0.191510000000    -0.099556   
C100     C      0.843370000000     0.071500000000     0.264750000000    -0.0985008  
C101     C      0.749520000000     0.064840000000     0.248960000000     0.0163437  
C102     C      0.787980000000     0.081170000000     0.281050000000     0.0154525  
C103     C      0.660160000000     0.030160000000     0.243920000000     0.00919542 
C104     C      0.693920000000     0.072390000000     0.264710000000    -0.0992138  
C105     C      0.133560000000     0.161810000000     0.702530000000     0.010087   
C106     C      0.038650000000     0.272930000000     0.897940000000     0.00971119 
C107     C      0.069760000000     0.333050000000     0.826020000000     0.0103065  
C108     C      0.080010000000     0.233960000000     0.883380000000    -0.100189   
C109     C      0.118350000000     0.209890000000     0.732850000000    -0.0981276  
C110     C      0.111690000000     0.294890000000     0.810610000000    -0.100947   
C111     C      0.101240000000     0.200110000000     0.790490000000     0.0159925  
C112     C      0.096730000000     0.240340000000     0.825300000000     0.0171775  
C113     C      0.092810000000     0.103720000000     0.768060000000     0.0110986  
C114     C      0.079390000000     0.147860000000     0.805730000000    -0.0986133  
C115     C      0.903070000000     0.804690000000     0.692090000000     0.00990824 
C116     C      0.054000000000     0.723010000000     0.870960000000     0.0135197  
C117     C      0.042590000000     0.660090000000     0.799600000000     0.0120189  
C118     C      0.009470000000     0.756300000000     0.852650000000    -0.0990062  
C119     C      0.944700000000     0.768170000000     0.711980000000    -0.0976967  
C120     C      0.997090000000     0.689570000000     0.776610000000    -0.0990941  
C121     C      0.964430000000     0.780730000000     0.767570000000     0.0156323  
C122     C      0.992170000000     0.744890000000     0.795930000000     0.0172943  
C123     C      0.920140000000     0.868990000000     0.760220000000     0.0132656  
C124     C      0.961820000000     0.836440000000     0.786140000000    -0.0988141  
C125     C      0.901160000000     0.677320000000     0.219930000000     0.0109821  
C126     C      0.939310000000     0.885270000000     0.289390000000     0.00874108 
C127     C      0.901900000000     0.821260000000     0.356900000000     0.00929167 
C128     C      0.900390000000     0.868100000000     0.248630000000    -0.101199   
C129     C      0.916100000000     0.720250000000     0.257090000000    -0.100893   
C130     C      0.862960000000     0.807500000000     0.315230000000    -0.101082   
C131     C      0.906030000000     0.772660000000     0.231930000000     0.0189109  
C132     C      0.887030000000     0.813000000000     0.260630000000     0.0181163  
C133     C      0.913940000000     0.734970000000     0.140200000000     0.0102295  
C134     C      0.927730000000     0.779540000000     0.175950000000    -0.100632   
C135     C      0.072140000000     0.143480000000     0.298860000000     0.0133455  
C136     C      0.948410000000     0.351270000000     0.257070000000     0.00998242 
C137     C      0.940100000000     0.288870000000     0.184710000000     0.0131475  
C138     C      0.992430000000     0.321370000000     0.282470000000    -0.0982458  
C139     C      0.029530000000     0.174940000000     0.273220000000    -0.0987142  
C140     C      0.983090000000     0.254830000000     0.205420000000    -0.098828   
C141     C      0.025920000000     0.230600000000     0.291750000000     0.0164893  
C142     C      0.998540000000     0.266270000000     0.262760000000     0.0159397  
C143     C      0.086860000000     0.207810000000     0.367750000000     0.0105212  
C144     C      0.044100000000     0.242990000000     0.347960000000    -0.0979054  
H1       H      0.971720000000     0.108400000000     0.609870000000     0.207287   
H2       H      0.107980000000     0.034480000000     0.450280000000     0.201773   
H3       H      0.024960000000     0.892590000000     0.600040000000     0.20657    
H4       H      0.892290000000     0.981960000000     0.448280000000     0.201771   
H5       H      0.161930000000     0.097280000000     0.529170000000     0.124432   
H6       H      0.194510000000     0.994860000000     0.519170000000     0.181732   
H7       H      0.086140000000     0.846890000000     0.492250000000     0.146786   
H8       H      0.999900000000     0.815500000000     0.544380000000     0.191226   
H9       H      0.836200000000     0.916740000000     0.522680000000     0.123601   
H10      H      0.803170000000     0.017150000000     0.519870000000     0.181692   
H11      H      0.911260000000     0.164650000000     0.505720000000     0.14515    
H12      H      0.021980000000     0.195000000000     0.577880000000     0.195333   
H13      H      0.953190000000     0.802670000000     0.502430000000     0.200795   
H14      H      0.796110000000     0.078990000000     0.535080000000     0.19906    
H15      H      0.009180000000     0.197920000000     0.512700000000     0.198484   
H16      H      0.202610000000     0.933330000000     0.536630000000     0.199966   
H17      H      0.897280000000     0.578830000000     0.072160000000     0.207707   
H18      H      0.954320000000     0.422600000000     0.929420000000     0.203141   
H19      H      0.097780000000     0.577820000000     0.974100000000     0.207651   
H20      H      0.048610000000     0.436280000000     0.140290000000     0.202152   
H21      H      0.883230000000     0.497980000000     0.878500000000     0.12609    
H22      H      0.975820000000     0.489790000000     0.822970000000     0.183252   
H23      H      0.136870000000     0.469020000000     0.904450000000     0.144893   
H24      H      0.190570000000     0.549280000000     0.011540000000     0.195449   
H25      H      0.124730000000     0.509810000000     0.177100000000     0.124192   
H26      H      0.029270000000     0.515100000000     0.231960000000     0.182383   
H27      H      0.864440000000     0.477450000000     0.156010000000     0.145109   
H28      H      0.817520000000     0.515760000000     0.070200000000     0.192422   
H29      H      0.188660000000     0.486680000000     0.998850000000     0.200757   
H30      H      0.969740000000     0.526290000000     0.252670000000     0.199864   
H31      H      0.790030000000     0.508300000000     0.011100000000     0.200004   
H32      H      0.036780000000     0.492810000000     0.804420000000     0.198656   
H33      H      0.432180000000     0.098350000000     0.084580000000     0.208727   
H34      H      0.570780000000     0.934760000000     0.123310000000     0.203236   
H35      H      0.422380000000     0.910840000000     0.963440000000     0.208154   
H36      H      0.577140000000     0.052440000000     0.921370000000     0.20453    
H37      H      0.498000000000     0.947510000000     0.215620000000     0.124184   
H38      H      0.496930000000     0.850580000000     0.161660000000     0.182136   
H39      H      0.520300000000     0.823620000000     0.971670000000     0.145943   
H40      H      0.457990000000     0.882590000000     0.865480000000     0.195403   
H41      H      0.510890000000     0.050200000000     0.831190000000     0.123799   
H42      H      0.507250000000     0.153680000000     0.887700000000     0.1843     
H43      H      0.548630000000     0.174260000000     0.066120000000     0.14589    
H44      H      0.470900000000     0.121150000000     0.183210000000     0.196788   
H45      H      0.519980000000     0.872020000000     0.873680000000     0.199545   
H46      H      0.507670000000     0.200770000000     0.932300000000     0.198144   
H47      H      0.533410000000     0.123290000000     0.172320000000     0.202449   
H48      H      0.485830000000     0.802330000000     0.120320000000     0.199049   
H49      H      0.722290000000     0.681630000000     0.957370000000     0.0421668  
H50      H      0.726430000000     0.828500000000     0.111910000000     0.0241784  
H51      H      0.854140000000     0.741380000000     0.908200000000     0.0254588  
H52      H      0.831150000000     0.795870000000     0.976920000000     0.0408147  
H53      H      0.787360000000     0.828620000000     0.043300000000     0.0409108  
H54      H      0.678980000000     0.709730000000     0.028780000000     0.0419216  
H55      H      0.790040000000     0.618570000000     0.931730000000     0.0366934  
H56      H      0.720010000000     0.887740000000     0.076000000000     0.0353194  
H57      H      0.844440000000     0.749870000000     0.029260000000     0.048665   
H58      H      0.662890000000     0.759600000000     0.981530000000     0.0510454  
H59      H      0.902120000000     0.732810000000     0.957340000000     0.036534   
H60      H      0.663120000000     0.760870000000     0.103830000000     0.02544    
H61      H      0.760320000000     0.659060000000     0.012330000000     0.0482365  
H62      H      0.743370000000     0.847890000000     0.992310000000     0.053566   
H63      H      0.610300000000     0.769180000000     0.060030000000     0.0332285  
H64      H      0.789600000000     0.677960000000     0.895200000000     0.0270447  
H65      H      0.696960000000     0.257510000000     0.914410000000     0.041811   
H66      H      0.842600000000     0.271210000000     0.065490000000     0.0277339  
H67      H      0.739900000000     0.109670000000     0.914780000000     0.0247651  
H68      H      0.802900000000     0.147950000000     0.961910000000     0.0408208  
H69      H      0.846670000000     0.202990000000     0.004300000000     0.0397353  
H70      H      0.732310000000     0.317390000000     0.957410000000     0.0423912  
H71      H      0.626940000000     0.195250000000     0.923330000000     0.0318041  
H72      H      0.902050000000     0.272730000000     0.030390000000     0.0376113  
H73      H      0.765180000000     0.156070000000     0.021830000000     0.0480206  
H74      H      0.790170000000     0.319060000000     0.919320000000     0.0514264  
H75      H      0.734090000000     0.082680000000     0.980560000000     0.036967   
H76      H      0.772790000000     0.335900000000     0.039380000000     0.0277671  
H77      H      0.677510000000     0.243270000000     0.982430000000     0.0501995  
H78      H      0.864400000000     0.243030000000     0.948820000000     0.049087   
H79      H      0.786100000000     0.383640000000     0.989430000000     0.0379599  
H80      H      0.680430000000     0.176400000000     0.883460000000     0.0233796  
H81      H      0.304630000000     0.744780000000     0.136160000000     0.0422845  
H82      H      0.093320000000     0.744090000000     0.142390000000     0.0283814  
H83      H      0.257330000000     0.849150000000     0.014450000000     0.0265626  
H84      H      0.194340000000     0.863390000000     0.083860000000     0.0407403  
H85      H      0.137240000000     0.811230000000     0.106650000000     0.0410718  
H86      H      0.240830000000     0.703720000000     0.163760000000     0.0427258  
H87      H      0.370220000000     0.791070000000     0.090080000000     0.0358436  
H88      H      0.079850000000     0.741420000000     0.072790000000     0.0379185  
H89      H      0.240650000000     0.877680000000     0.131980000000     0.0499313  
H90      H      0.237380000000     0.688980000000     0.093540000000     0.0495641  
H91      H      0.264810000000     0.910690000000     0.043650000000     0.0374068  
H92      H      0.157210000000     0.683650000000     0.182450000000     0.0284742  
H93      H      0.307150000000     0.807880000000     0.161580000000     0.0512878  
H94      H      0.156700000000     0.778570000000     0.046710000000     0.0482624  
H95      H      0.183610000000     0.632710000000     0.143560000000     0.039884   
H96      H      0.321190000000     0.774710000000     0.044850000000     0.0281994  
H97      H      0.169290000000     0.214170000000     0.065520000000     0.0408346  
H98      H      0.336840000000     0.235380000000     0.935790000000     0.026726   
H99      H      0.219440000000     0.334730000000     0.141670000000     0.027359   
H100     H      0.282280000000     0.327780000000     0.074730000000     0.0422793  
H101     H      0.322830000000     0.292860000000     0.005880000000     0.0422295  
H102     H      0.211890000000     0.176450000000     0.002340000000     0.0408867  
H103     H      0.102090000000     0.278440000000     0.089460000000     0.0359334  
H104     H      0.390010000000     0.229700000000     0.979400000000     0.035002   
H105     H      0.240570000000     0.347360000000     0.021710000000     0.0489541  
H106     H      0.254920000000     0.159580000000     0.055110000000     0.0509987  
H107     H      0.217150000000     0.392280000000     0.102070000000     0.038147   
H108     H      0.272310000000     0.167890000000     0.934420000000     0.0259534  
H109     H      0.155830000000     0.260540000000     0.013640000000     0.0513663  
H110     H      0.338730000000     0.246850000000     0.057300000000     0.0502788  
H111     H      0.277750000000     0.112240000000     0.976230000000     0.0374498  
H112     H      0.153080000000     0.270300000000     0.135120000000     0.0247333  
H113     H      0.689880000000     0.993180000000     0.736180000000     0.0429478  
H114     H      0.861480000000     0.103750000000     0.789210000000     0.0243297  
H115     H      0.732790000000     0.900320000000     0.857500000000     0.0254587  
H116     H      0.793510000000     0.963770000000     0.861790000000     0.0411989  
H117     H      0.837650000000     0.030940000000     0.836290000000     0.0408854  
H118     H      0.730140000000     0.068010000000     0.718730000000     0.041902   
H119     H      0.620210000000     0.955340000000     0.791050000000     0.0386595  
H120     H      0.909640000000     0.057330000000     0.773850000000     0.0361067  
H121     H      0.749950000000     0.011980000000     0.885790000000     0.0511065  
H122     H      0.770250000000     0.019630000000     0.688840000000     0.0531483  
H123     H      0.722900000000     0.930560000000     0.920490000000     0.0367112  
H124     H      0.796580000000     0.127060000000     0.726140000000     0.0254292  
H125     H      0.669830000000     0.032500000000     0.791280000000     0.0483697  
H126     H      0.852430000000     0.987890000000     0.782570000000     0.053067   
H127     H      0.798090000000     0.103300000000     0.659320000000     0.0345037  
H128     H      0.675690000000     0.915640000000     0.783390000000     0.0277939  
H129     H      0.308730000000     0.937070000000     0.739470000000     0.0425037  
H130     H      0.114980000000     0.865590000000     0.777950000000     0.0238033  
H131     H      0.267110000000     0.042160000000     0.849820000000     0.0273058  
H132     H      0.202160000000     0.982250000000     0.863950000000     0.0413681  
H133     H      0.150280000000     0.925260000000     0.833390000000     0.0410398  
H134     H      0.253490000000     0.878750000000     0.716670000000     0.0420421  
H135     H      0.378300000000     0.970600000000     0.792340000000     0.0385276  
H136     H      0.077330000000     0.922200000000     0.768060000000     0.0356684  
H137     H      0.244430000000     0.932420000000     0.886580000000     0.0505803  
H138     H      0.229170000000     0.938050000000     0.688820000000     0.0514739  
H139     H      0.272330000000     0.015710000000     0.915750000000     0.038026   
H140     H      0.176020000000     0.837170000000     0.712500000000     0.0257169  
H141     H      0.318590000000     0.901100000000     0.800120000000     0.0481642  
H142     H      0.145920000000     0.977080000000     0.785310000000     0.051702   
H143     H      0.183880000000     0.869700000000     0.649630000000     0.0351747  
H144     H      0.328940000000     0.016220000000     0.777890000000     0.029698   
H145     H      0.157180000000     0.961850000000     0.218950000000     0.0407188  
H146     H      0.324250000000     0.071360000000     0.266850000000     0.0261427  
H147     H      0.193800000000     0.869330000000     0.333190000000     0.0266933  
H148     H      0.264590000000     0.923370000000     0.334970000000     0.0419745  
H149     H      0.309560000000     0.993680000000     0.313780000000     0.0424603  
H150     H      0.204090000000     0.024280000000     0.188290000000     0.0410163  
H151     H      0.084650000000     0.945110000000     0.284850000000     0.0370233  
H152     H      0.378480000000     0.030200000000     0.257890000000     0.0390873  
H153     H      0.229250000000     0.975900000000     0.363830000000     0.0477827  
H154     H      0.247900000000     0.975510000000     0.166240000000     0.0523993  
H155     H      0.196000000000     0.896400000000     0.398510000000     0.0353158  
H156     H      0.265280000000     0.087660000000     0.193140000000     0.0243648  
H157     H      0.146330000000     0.009190000000     0.269630000000     0.0502182  
H158     H      0.326420000000     0.954430000000     0.257600000000     0.052279   
H159     H      0.274020000000     0.057220000000     0.130120000000     0.0358562  
H160     H      0.128620000000     0.894340000000     0.270850000000     0.0253723  
H161     H      0.797810000000     0.031080000000     0.185730000000     0.040866   
H162     H      0.820240000000     0.167350000000     0.346580000000     0.0259977  
H163     H      0.668550000000     0.994320000000     0.266720000000     0.0275894  
H164     H      0.687730000000     0.072230000000     0.308530000000     0.0421673  
H165     H      0.743120000000     0.126100000000     0.337910000000     0.0418184  
H166     H      0.849960000000     0.082960000000     0.222430000000     0.0407673  
H167     H      0.728850000000     0.001830000000     0.129380000000     0.0371766  
H168     H      0.810460000000     0.131890000000     0.407400000000     0.0337914  
H169     H      0.680630000000     0.109920000000     0.248580000000     0.0497685  
H170     H      0.851620000000     0.029880000000     0.269140000000     0.0497018  
H171     H      0.620090000000     0.040880000000     0.252430000000     0.0387809  
H172     H      0.883430000000     0.140780000000     0.281050000000     0.0244832  
H173     H      0.756450000000     0.082340000000     0.164900000000     0.0505105  
H174     H      0.766650000000     0.065420000000     0.363040000000     0.0479207  
H175     H      0.920400000000     0.083660000000     0.290070000000     0.0360904  
H176     H      0.732810000000     0.970650000000     0.193180000000     0.0254227  
H177     H      0.152290000000     0.234480000000     0.731640000000     0.0425631  
H178     H      0.003590000000     0.262860000000     0.876600000000     0.0268417  
H179     H      0.130270000000     0.087540000000     0.779760000000     0.0259656  
H180     H      0.093250000000     0.135370000000     0.845500000000     0.0408309  
H181     H      0.064820000000     0.195920000000     0.893820000000     0.0411205  
H182     H      0.119410000000     0.301410000000     0.767600000000     0.0421486  
H183     H      0.138360000000     0.171840000000     0.659570000000     0.0393689  
H184     H      0.030370000000     0.269090000000     0.941380000000     0.0382015  
H185     H      0.037510000000     0.151910000000     0.807960000000     0.0487201  
H186     H      0.146740000000     0.304240000000     0.832260000000     0.0500597  
H187     H      0.064780000000     0.072820000000     0.774100000000     0.0371631  
H188     H      0.036930000000     0.327280000000     0.799540000000     0.0263493  
H189     H      0.087160000000     0.229730000000     0.711220000000     0.0484503  
H190     H      0.113280000000     0.239880000000     0.909160000000     0.0495581  
H191     H      0.083950000000     0.372290000000     0.818190000000     0.0331769  
H192     H      0.171080000000     0.148370000000     0.717170000000     0.0283043  
H193     H      0.928450000000     0.729230000000     0.711610000000     0.0422699  
H194     H      0.088740000000     0.736700000000     0.849990000000     0.0249944  
H195     H      0.883490000000     0.859350000000     0.780000000000     0.0245923  
H196     H      0.954450000000     0.838350000000     0.829790000000     0.0411507  
H197     H      0.022320000000     0.796300000000     0.856290000000     0.0413899  
H198     H      0.001670000000     0.688150000000     0.732550000000     0.0419935  
H199     H      0.896750000000     0.798170000000     0.648980000000     0.0380004  
H200     H      0.059830000000     0.728110000000     0.914420000000     0.0356146  
H201     H      0.998910000000     0.854390000000     0.777200000000     0.0524566  
H202     H      0.961910000000     0.669090000000     0.788010000000     0.0518171  
H203     H      0.926940000000     0.910150000000     0.767530000000     0.0357237  
H204     H      0.077540000000     0.674170000000     0.779360000000     0.0268211  
H205     H      0.977010000000     0.769410000000     0.683170000000     0.0478411  
H206     H      0.976990000000     0.750410000000     0.880560000000     0.0542424  
H207     H      0.038990000000     0.618850000000     0.790440000000     0.0349209  
H208     H      0.867300000000     0.795520000000     0.713870000000     0.028002   
H209     H      0.897010000000     0.713500000000     0.295930000000     0.0430603  
H210     H      0.976240000000     0.866310000000     0.280140000000     0.0310628  
H211     H      0.872860000000     0.737950000000     0.131350000000     0.0259024  
H212     H      0.912460000000     0.814110000000     0.155520000000     0.0409423  
H213     H      0.916020000000     0.875580000000     0.208240000000     0.0408939  
H214     H      0.846180000000     0.769630000000     0.323500000000     0.0426842  
H215     H      0.912700000000     0.640250000000     0.238540000000     0.0357954  
H216     H      0.944630000000     0.927100000000     0.283780000000     0.0373319  
H217     H      0.969550000000     0.782610000000     0.178100000000     0.0502707  
H218     H      0.830580000000     0.834930000000     0.318450000000     0.0496811  
H219     H      0.934680000000     0.739620000000     0.101630000000     0.0380497  
H220     H      0.932520000000     0.791710000000     0.357110000000     0.0281872  
H221     H      0.957330000000     0.716850000000     0.264760000000     0.0520531  
H222     H      0.865800000000     0.892500000000     0.252410000000     0.0472821  
H223     H      0.882860000000     0.819850000000     0.396680000000     0.0358985  
H224     H      0.859250000000     0.677560000000     0.216510000000     0.0283638  
H225     H      0.036670000000     0.172920000000     0.229540000000     0.0410255  
H226     H      0.912390000000     0.337360000000     0.275150000000     0.0272931  
H227     H      0.122390000000     0.218470000000     0.346300000000     0.0269813  
H228     H      0.058770000000     0.282520000000     0.349560000000     0.0416152  
H229     H      0.985390000000     0.322110000000     0.326230000000     0.0415556  
H230     H      0.969520000000     0.215060000000     0.201760000000     0.0411102  
H231     H      0.066600000000     0.102180000000     0.291110000000     0.0348069  
H232     H      0.951790000000     0.392450000000     0.266650000000     0.0334212  
H233     H      0.011420000000     0.239900000000     0.376130000000     0.0489919  
H234     H      0.016730000000     0.259680000000     0.178840000000     0.0524533  
H235     H      0.092670000000     0.214200000000     0.410980000000     0.0366966  
H236     H      0.904130000000     0.275610000000     0.203500000000     0.025251   
H237     H      0.992910000000     0.156190000000     0.282500000000     0.0534986  
H238     H      0.028160000000     0.341950000000     0.273620000000     0.0470503  
H239     H      0.936480000000     0.284110000000     0.140890000000     0.0367233  
H240     H      0.108470000000     0.154450000000     0.279200000000     0.0238638  
N1       N      0.661380000000     0.832500000000     0.064040000000    -0.172064   
N2       N      0.849100000000     0.671330000000     0.950520000000    -0.170728   
N3       N      0.847900000000     0.332160000000     0.009720000000    -0.170785   
N4       N      0.676440000000     0.137540000000     0.957640000000    -0.171795   
N5       N      0.130230000000     0.682920000000     0.103640000000    -0.170008   
N6       N      0.321750000000     0.853500000000     0.063240000000    -0.170748   
N7       N      0.337780000000     0.167080000000     0.981610000000    -0.17044    
N8       N      0.156020000000     0.339640000000     0.091370000000    -0.170552   
N9       N      0.856890000000     0.075000000000     0.711190000000    -0.171013   
N10      N      0.667520000000     0.947530000000     0.860170000000    -0.171016   
N11      N      0.129210000000     0.902790000000     0.704130000000    -0.171227   
N12      N      0.329300000000     0.991390000000     0.858410000000    -0.1706     
N13      N      0.330300000000     0.040160000000     0.189610000000    -0.171272   
N14      N      0.137800000000     0.926350000000     0.346830000000    -0.171034   
N15      N      0.867240000000     0.101760000000     0.353330000000    -0.171139   
N16      N      0.670290000000     0.021230000000     0.186930000000    -0.170268   
N17      N      0.053150000000     0.325310000000     0.881920000000    -0.170931   
N18      N      0.096300000000     0.121620000000     0.712420000000    -0.170109   
N19      N      0.045590000000     0.669580000000     0.856960000000    -0.170718   
N20      N      0.917380000000     0.857340000000     0.703340000000    -0.170311   
N21      N      0.924500000000     0.871900000000     0.345180000000    -0.170585   
N22      N      0.923850000000     0.685050000000     0.166480000000    -0.170264   
N23      N      0.948440000000     0.342080000000     0.199560000000    -0.171172   
N24      N      0.074570000000     0.154720000000     0.355880000000    -0.171141   
O1       O      0.880120000000     0.083820000000     0.441790000000    -0.365125   
O2       O      0.936320000000     0.054650000000     0.378860000000    -0.355711   
O3       O      0.080380000000     0.114250000000     0.623400000000    -0.360921   
O4       O      0.042430000000     0.060300000000     0.683580000000    -0.354908   
O5       O      0.067630000000     0.131970000000     0.444030000000    -0.360272   
O6       O      0.039290000000     0.078520000000     0.379850000000    -0.356016   
O7       O      0.874320000000     0.068780000000     0.621990000000    -0.356479   
O8       O      0.931520000000     0.038890000000     0.682820000000    -0.356658   
O9       O      0.896340000000     0.150110000000     0.538930000000    -0.343485   
O10      O      0.817780000000     0.049710000000     0.528230000000    -0.512606   
O11      O      0.022140000000     0.179230000000     0.543210000000    -0.513427   
O12      O      0.139420000000     0.127830000000     0.528600000000    -0.331461   
O13      O      0.980110000000     0.085820000000     0.479240000000    -0.469677   
O14      O      0.978890000000     0.080910000000     0.585410000000    -0.609088   
O15      O      0.926390000000     0.878610000000     0.614980000000    -0.357725   
O16      O      0.956890000000     0.931180000000     0.678830000000    -0.353165   
O17      O      0.121690000000     0.934660000000     0.436100000000    -0.365155   
O18      O      0.066210000000     0.968080000000     0.375470000000    -0.354882   
O19      O      0.117870000000     0.923700000000     0.616270000000    -0.358358   
O20      O      0.061090000000     0.951570000000     0.679280000000    -0.354713   
O21      O      0.929690000000     0.886670000000     0.434660000000    -0.363743   
O22      O      0.963260000000     0.943670000000     0.374740000000    -0.356298   
O23      O      0.971320000000     0.826890000000     0.523530000000    -0.510187   
O24      O      0.857080000000     0.885070000000     0.524010000000    -0.335344   
O25      O      0.105530000000     0.858440000000     0.523310000000    -0.344346   
O26      O      0.180470000000     0.961820000000     0.527890000000    -0.514047   
O27      O      0.018240000000     0.922730000000     0.578500000000    -0.611843   
O28      O      0.019580000000     0.927140000000     0.473140000000    -0.468304   
O29      O      0.918530000000     0.982140000000     0.585790000000    -0.475749   
O30      O      0.079520000000     0.026250000000     0.473250000000    -0.623326   
O31      O      0.920290000000     0.987640000000     0.471790000000    -0.623016   
O32      O      0.078530000000     0.020530000000     0.587050000000    -0.475184   
O33      O      0.956140000000     0.426670000000     0.176760000000    -0.364365   
O34      O      0.973730000000     0.364740000000     0.115490000000    -0.353662   
O35      O      0.867780000000     0.587130000000     0.966990000000    -0.359968   
O36      O      0.925180000000     0.648420000000     0.986410000000    -0.352433   
O37      O      0.867830000000     0.416140000000     0.997150000000    -0.357797   
O38      O      0.929020000000     0.358380000000     0.021120000000    -0.355171   
O39      O      0.944370000000     0.599800000000     0.160200000000    -0.355365   
O40      O      0.961600000000     0.654580000000     0.090850000000    -0.356198   
O41      O      0.878550000000     0.509890000000     0.168800000000    -0.345504   
O42      O      0.993740000000     0.519250000000     0.224220000000    -0.514284   
O43      O      0.820240000000     0.510380000000     0.032200000000    -0.511025   
O44      O      0.857620000000     0.490710000000     0.906650000000    -0.341225   
O45      O      0.927560000000     0.456700000000     0.069390000000    -0.469152   
O46      O      0.925100000000     0.556850000000     0.061360000000    -0.61157    
O47      O      0.121730000000     0.597280000000     0.089010000000    -0.359083   
O48      O      0.064200000000     0.654250000000     0.054740000000    -0.355289   
O49      O      0.048390000000     0.411830000000     0.895000000000    -0.36553    
O50      O      0.027890000000     0.356480000000     0.962870000000    -0.357172   
O51      O      0.038420000000     0.585010000000     0.880270000000    -0.353161   
O52      O      0.026430000000     0.646960000000     0.942860000000    -0.358218   
O53      O      0.134890000000     0.424370000000     0.081690000000    -0.360012   
O54      O      0.076570000000     0.363150000000     0.064950000000    -0.356867   
O55      O      0.174150000000     0.516640000000     0.015590000000    -0.515402   
O56      O      0.149370000000     0.509180000000     0.147020000000    -0.329887   
O57      O      0.122670000000     0.503080000000     0.894880000000    -0.344894   
O58      O      0.011020000000     0.492860000000     0.832130000000    -0.511306   
O59      O      0.071920000000     0.555670000000     0.988570000000    -0.607038   
O60      O      0.074470000000     0.454090000000     0.996280000000    -0.468391   
O61      O      0.032250000000     0.565450000000     0.103310000000    -0.474663   
O62      O      0.966720000000     0.446630000000     0.954950000000    -0.622632   
O63      O      0.035480000000     0.456770000000     0.111120000000    -0.622504   
O64      O      0.964090000000     0.555530000000     0.946280000000    -0.476627   
O65      O      0.592080000000     0.128980000000     0.975950000000    -0.36898    
O66      O      0.647450000000     0.064290000000     0.997210000000    -0.356923   
O67      O      0.414480000000     0.029030000000     0.170160000000    -0.359937   
O68      O      0.356280000000     0.027350000000     0.103620000000    -0.357183   
O69      O      0.585770000000     0.023720000000     0.167920000000    -0.361076   
O70      O      0.643880000000     0.008660000000     0.101590000000    -0.355498   
O71      O      0.421410000000     0.143630000000     0.986990000000    -0.355402   
O72      O      0.359720000000     0.085070000000     0.004090000000    -0.354445   
O73      O      0.512020000000     0.171940000000     0.058840000000    -0.346363   
O74      O      0.506920000000     0.164740000000     0.924340000000    -0.510515   
O75      O      0.501800000000     0.105350000000     0.170120000000    -0.512317   
O76      O      0.499470000000     0.984870000000     0.221170000000    -0.3304     
O77      O      0.553720000000     0.065610000000     0.067810000000    -0.468772   
O78      O      0.452850000000     0.071970000000     0.068290000000    -0.609444   
O79      O      0.413360000000     0.982960000000     0.877820000000    -0.360405   
O80      O      0.355350000000     0.996990000000     0.944490000000    -0.354677   
O81      O      0.577780000000     0.855290000000     0.057110000000    -0.364975   
O82      O      0.639280000000     0.914880000000     0.044030000000    -0.356623   
O83      O      0.406730000000     0.868090000000     0.061810000000    -0.358157   
O84      O      0.351410000000     0.932970000000     0.041470000000    -0.357157   
O85      O      0.583760000000     0.962860000000     0.878450000000    -0.362788   
O86      O      0.641940000000     0.966550000000     0.944910000000    -0.353229   
O87      O      0.490550000000     0.894060000000     0.877270000000    -0.51453    
O88      O      0.503530000000     0.013620000000     0.825810000000    -0.330167   
O89      O      0.487970000000     0.824180000000     0.992030000000    -0.342191   
O90      O      0.491780000000     0.838220000000     0.126000000000    -0.513416   
O91      O      0.445650000000     0.934070000000     0.979560000000    -0.609471   
O92      O      0.546390000000     0.927080000000     0.978640000000    -0.469033   
O93      O      0.448330000000     0.047600000000     0.949800000000    -0.475049   
O94      O      0.550040000000     0.952040000000     0.097040000000    -0.624082   
O95      O      0.555030000000     0.039400000000     0.949190000000    -0.623261   
O96      O      0.442710000000     0.959040000000     0.098020000000    -0.475046   
Zr1      Zr     0.908330000000     0.057990000000     0.531350000000     1.28983    
Zr2      Zr     0.054440000000     0.093270000000     0.532820000000     1.29099    
Zr3      Zr     0.943750000000     0.915080000000     0.525920000000     1.29345    
Zr4      Zr     0.090230000000     0.950360000000     0.526970000000     1.2928     
Zr5      Zr     0.000510000000     0.008720000000     0.429190000000     1.26939    
Zr6      Zr     0.998080000000     0.999400000000     0.629280000000     1.26473    
Zr7      Zr     0.964940000000     0.511400000000     0.133930000000     1.29039    
Zr8      Zr     0.902260000000     0.502340000000     0.989840000000     1.29686    
Zr9      Zr     0.097220000000     0.509800000000     0.067710000000     1.28748    
Zr10     Zr     0.034550000000     0.500400000000     0.924210000000     1.28608    
Zr11     Zr     0.002030000000     0.410500000000     0.036340000000     1.26843    
Zr12     Zr     0.997140000000     0.601280000000     0.021700000000     1.26448    
Zr13     Zr     0.505160000000     0.102320000000     0.995850000000     1.29183    
Zr14     Zr     0.500040000000     0.021510000000     0.131430000000     1.29104    
Zr15     Zr     0.498420000000     0.977550000000     0.915680000000     1.29448    
Zr16     Zr     0.493940000000     0.896950000000     0.051200000000     1.29074    
Zr17     Zr     0.594020000000     0.993220000000     0.022920000000     1.26778    
Zr18     Zr     0.404860000000     0.006180000000     0.024150000000     1.26502    


