data_structure

_audit_creation_method RASPA-1.0
_audit_creation_date 2023-6-5
_audit_author_name 'Poobodin Mano'

_cell_length_a    26.9621
_cell_length_b    27.0646
_cell_length_c    27.0927
_cell_angle_alpha 89.2565
_cell_angle_beta  89.2563
_cell_angle_gamma 89.2563
_cell_volume      19765.1

_symmetry_cell_setting          triclinic
_symmetry_space_group_name_Hall 'P 1'
_symmetry_space_group_name_H-M  'P 1'
_symmetry_Int_Tables_number     1

_symmetry_equiv_pos_as_xyz 'x,y,z'

loop_
_atom_site_label
_atom_site_type_symbol
_atom_site_fract_x
_atom_site_fract_y
_atom_site_fract_z
_atom_site_charge
C1       C      0.855840000000     0.986960000000     0.380260000000     0.37569    
C2       C      0.028750000000     0.097230000000     0.617210000000     0.378754   
C3       C      0.983780000000     0.103250000000     0.363930000000     0.378888   
C4       C      0.887820000000     0.975330000000     0.635910000000     0.3785     
C5       C      0.998260000000     0.854820000000     0.618210000000     0.382833   
C6       C      0.096430000000     0.964780000000     0.348400000000     0.382108   
C7       C      0.130160000000     0.973220000000     0.601910000000     0.386947   
C8       C      0.964510000000     0.861770000000     0.365670000000     0.379308   
C9       C      0.981170000000     0.349470000000     0.103180000000     0.379907   
C10      C      0.869670000000     0.610780000000     0.962390000000     0.382371   
C11      C      0.879660000000     0.352750000000     0.968590000000     0.378423   
C12      C      0.970440000000     0.605740000000     0.114670000000     0.38546    
C13      C      0.105440000000     0.616540000000     0.024620000000     0.378201   
C14      C      0.016710000000     0.364170000000     0.861880000000     0.373621   
C15      C      0.996860000000     0.621810000000     0.875430000000     0.381294   
C16      C      0.120550000000     0.360740000000     0.000300000000     0.381434   
C17      C      0.622010000000     0.103700000000     0.976490000000     0.388243   
C18      C      0.355660000000     0.005630000000     0.100650000000     0.383018   
C19      C      0.613430000000     0.000240000000     0.110970000000     0.381403   
C20      C      0.364560000000     0.108110000000     0.952490000000     0.384772   
C21      C      0.366300000000     0.978260000000     0.860720000000     0.377715   
C22      C      0.617650000000     0.862550000000     0.007890000000     0.378731   
C23      C      0.359780000000     0.867950000000     0.990660000000     0.37824    
C24      C      0.623820000000     0.975870000000     0.866710000000     0.380237   
C25      C      0.785610000000     0.636860000000     0.935070000000     0.0116964  
C26      C      0.706650000000     0.841880000000     0.020300000000     0.0093065  
C27      C      0.646260000000     0.774460000000     0.028860000000     0.0317391  
C28      C      0.739720000000     0.811610000000     0.985080000000    -0.0994627  
C29      C      0.749360000000     0.667350000000     0.966290000000    -0.10059    
C30      C      0.673620000000     0.742490000000     0.990790000000    -0.104937   
C31      C      0.763240000000     0.721780000000     0.970500000000     0.018913   
C32      C      0.728070000000     0.756380000000     0.984750000000     0.0184764  
C33      C      0.851920000000     0.698780000000     0.940990000000     0.0134542  
C34      C      0.818340000000     0.734730000000     0.969620000000    -0.101546   
C35      C      0.594220000000     0.758440000000     0.032850000000     0.0476276  
C36      C      0.861420000000     0.266690000000     0.991420000000     0.0112051  
C37      C      0.673290000000     0.157700000000     0.925590000000    -0.0254486  
C38      C      0.677870000000     0.160780000000     0.018650000000     0.0328816  
C39      C      0.728900000000     0.169280000000     0.921660000000    -0.0858039  
C40      C      0.814970000000     0.239860000000     0.009850000000    -0.101947   
C41      C      0.734440000000     0.165300000000     0.016040000000    -0.103413   
C42      C      0.780030000000     0.231090000000     0.967510000000     0.0182911  
C43      C      0.748390000000     0.192100000000     0.968440000000     0.0152816  
C44      C      0.800390000000     0.318300000000     0.940800000000     0.0103904  
C45      C      0.781920000000     0.267530000000     0.924350000000    -0.101562   
C46      C      0.662310000000     0.136190000000     0.065170000000     0.0395234  
C47      C      0.335630000000     0.780580000000     0.982540000000     0.011902   
C48      C      0.117800000000     0.706830000000     0.033860000000     0.00852707 
C49      C      0.183630000000     0.650500000000     0.063450000000     0.0318777  
C50      C      0.155280000000     0.738420000000     0.004450000000    -0.0990209  
C51      C      0.300540000000     0.750190000000     0.014770000000    -0.100497   
C52      C      0.223780000000     0.675160000000     0.031640000000    -0.103885   
C53      C      0.246010000000     0.762340000000     0.005740000000     0.0203554  
C54      C      0.209810000000     0.728090000000     0.016660000000     0.0169452  
C55      C      0.272920000000     0.847620000000     0.969950000000     0.0125064  
C56      C      0.232370000000     0.816520000000     0.995570000000    -0.101897   
C57      C      0.199900000000     0.600170000000     0.077580000000     0.0487892  
C58      C      0.143980000000     0.271700000000     0.998740000000     0.0109149  
C59      C      0.341440000000     0.192480000000     0.923610000000     0.0105361  
C60      C      0.273690000000     0.133230000000     0.941510000000     0.0320286  
C61      C      0.318830000000     0.230400000000     0.959300000000    -0.102245   
C62      C      0.174420000000     0.250020000000     0.956320000000    -0.101052   
C63      C      0.250690000000     0.167910000000     0.979950000000    -0.106446   
C64      C      0.229110000000     0.258500000000     0.965270000000     0.0179228  
C65      C      0.263680000000     0.221160000000     0.966970000000     0.0191024  
C66      C      0.208850000000     0.335760000000     0.011940000000     0.00856111 
C67      C      0.242260000000     0.312510000000     0.971900000000    -0.100591   
C68      C      0.258260000000     0.081940000000     0.951800000000     0.0495046  
C69      C      0.875370000000     0.983450000000     0.726200000000     0.00887473 
C70      C      0.670010000000     0.936590000000     0.798870000000     0.0119813  
C71      C      0.693730000000     0.021290000000     0.825520000000     0.0337289  
C72      C      0.724360000000     0.919680000000     0.803210000000    -0.101011   
C73      C      0.832020000000     0.005060000000     0.756810000000    -0.100167   
C74      C      0.748010000000     0.005400000000     0.833790000000    -0.10426    
C75      C      0.788180000000     0.970660000000     0.756750000000     0.0190635  
C76      C      0.758940000000     0.963550000000     0.797730000000     0.0163935  
C77      C      0.815880000000     0.934880000000     0.675390000000     0.0115531  
C78      C      0.772110000000     0.954470000000     0.706000000000    -0.101633   
C79      C      0.676730000000     0.065870000000     0.852210000000     0.0360877  
C80      C      0.340030000000     0.984670000000     0.773470000000     0.00790863 
C81      C      0.169520000000     0.934330000000     0.674140000000    -0.0210518  
C82      C      0.209010000000     0.008570000000     0.634020000000     0.031724   
C83      C      0.165450000000     0.960020000000     0.723960000000    -0.0864578  
C84      C      0.297510000000     0.012890000000     0.747850000000    -0.099288   
C85      C      0.209010000000     0.034210000000     0.684570000000    -0.102533   
C86      C      0.247670000000     0.988530000000     0.757310000000     0.0189501  
C87      C      0.208580000000     0.995820000000     0.726200000000     0.0135887  
C88      C      0.277410000000     0.971830000000     0.843530000000     0.00880521 
C89      C      0.243430000000     0.954970000000     0.802370000000    -0.101603   
C90      C      0.204840000000     0.046520000000     0.594550000000     0.0465161  
C91      C      0.110560000000     0.972220000000     0.257600000000     0.0081992  
C92      C      0.325460000000     0.025300000000     0.184830000000     0.0142341  
C93      C      0.265350000000     0.001980000000     0.117420000000     0.0309772  
C94      C      0.291850000000     0.996750000000     0.220480000000    -0.105776   
C95      C      0.147110000000     0.010260000000     0.236370000000    -0.0965102  
C96      C      0.225990000000     0.020270000000     0.155180000000    -0.106366   
C97      C      0.201050000000     0.993080000000     0.242270000000     0.0133141  
C98      C      0.237340000000     0.002610000000     0.207560000000     0.0253839  
C99      C      0.175850000000     0.935470000000     0.311500000000     0.0118687  
C100     C      0.214190000000     0.972600000000     0.293290000000    -0.0993044  
C101     C      0.259200000000     0.948710000000     0.108900000000     0.0512588  
C102     C      0.634320000000     0.020130000000     0.197400000000     0.0110081  
C103     C      0.828160000000     0.955560000000     0.300960000000     0.0094948  
C104     C      0.764920000000     0.993290000000     0.358050000000     0.0294153  
C105     C      0.804970000000     0.980550000000     0.255960000000    -0.101382   
C106     C      0.660550000000     0.987330000000     0.235370000000    -0.101732   
C107     C      0.738290000000     0.016810000000     0.313100000000    -0.103897   
C108     C      0.716410000000     0.987610000000     0.226740000000     0.0182204  
C109     C      0.750110000000     0.991000000000     0.264430000000     0.0185466  
C110     C      0.702050000000     0.004200000000     0.135060000000     0.0116015  
C111     C      0.731800000000     0.974770000000     0.173880000000    -0.10158    
C112     C      0.756780000000     0.026050000000     0.400700000000     0.0451719  
C113     C      0.067110000000     0.176810000000     0.638380000000     0.00969968 
C114     C      0.001490000000     0.278700000000     0.837410000000     0.00943499 
C115     C      0.024390000000     0.341500000000     0.772130000000     0.0306325  
C116     C      0.030940000000     0.238090000000     0.811210000000    -0.10082    
C117     C      0.044070000000     0.219400000000     0.667470000000    -0.0987577  
C118     C      0.048210000000     0.299880000000     0.740710000000    -0.105107   
C119     C      0.038890000000     0.208840000000     0.722840000000     0.0153948  
C120     C      0.035140000000     0.247260000000     0.755970000000     0.0190308  
C121     C      0.048420000000     0.115500000000     0.704600000000     0.0103323  
C122     C      0.026790000000     0.155710000000     0.738530000000    -0.098692   
C123     C      0.053210000000     0.386740000000     0.761940000000     0.0455496  
C124     C      0.997020000000     0.712170000000     0.863020000000     0.0117077  
C125     C      0.965710000000     0.779350000000     0.657500000000     0.00896197 
C126     C      0.039870000000     0.819640000000     0.693580000000     0.0324394  
C127     C      0.939030000000     0.783030000000     0.707710000000    -0.0998653  
C128     C      0.017950000000     0.747080000000     0.823310000000    -0.102912   
C129     C      0.013400000000     0.826990000000     0.743510000000    -0.104897   
C130     C      0.988250000000     0.743560000000     0.776680000000     0.0211026  
C131     C      0.976920000000     0.784410000000     0.748750000000     0.0158616  
C132     C      0.964170000000     0.655910000000     0.797540000000     0.0115182  
C133     C      0.982720000000     0.691480000000     0.757400000000    -0.102815   
C134     C      0.081620000000     0.852830000000     0.682560000000     0.0443385  
C135     C      0.965610000000     0.840370000000     0.276950000000     0.0107275  
C136     C      0.973400000000     0.625640000000     0.202680000000     0.0143963  
C137     C      0.955810000000     0.692950000000     0.137780000000     0.0332723  
C138     C      0.952070000000     0.662900000000     0.239370000000    -0.104095   
C139     C      0.998400000000     0.799100000000     0.255820000000    -0.100299   
C140     C      0.979850000000     0.728270000000     0.174220000000    -0.106403   
C141     C      0.974000000000     0.749210000000     0.264580000000     0.0162703  
C142     C      0.969080000000     0.715140000000     0.228030000000     0.0238773  
C143     C      0.929870000000     0.781860000000     0.340080000000     0.0090086  
C144     C      0.959410000000     0.738590000000     0.318210000000    -0.0987284  
C145     C      0.901780000000     0.701460000000     0.135990000000     0.040881   
C146     C      0.994890000000     0.189510000000     0.333440000000     0.0063316  
C147     C      0.992000000000     0.260250000000     0.119070000000     0.0127287  
C148     C      0.968050000000     0.319010000000     0.188850000000     0.0324248  
C149     C      0.979190000000     0.219510000000     0.156970000000    -0.103273   
C150     C      0.030890000000     0.204860000000     0.292060000000    -0.0980017  
C151     C      0.000020000000     0.285390000000     0.221980000000    -0.105125   
C152     C      0.007840000000     0.194780000000     0.242340000000     0.0161775  
C153     C      0.996840000000     0.231250000000     0.208550000000     0.0229416  
C154     C      0.959300000000     0.125080000000     0.278160000000     0.00868468 
C155     C      0.994000000000     0.141080000000     0.235810000000    -0.0994529  
C156     C      0.914840000000     0.311030000000     0.198480000000     0.0405648  
H1       H      0.932130000000     0.060520000000     0.572410000000     0.206642   
H2       H      0.066050000000     0.050750000000     0.407630000000     0.201673   
H3       H      0.070980000000     0.896130000000     0.551230000000     0.213056   
H4       H      0.900910000000     0.911440000000     0.430580000000     0.206147   
H5       H      0.092360000000     0.134080000000     0.478320000000     0.13033    
H6       H      0.164750000000     0.054770000000     0.452230000000     0.188305   
H7       H      0.135520000000     0.878750000000     0.452070000000     0.14627    
H8       H      0.065660000000     0.805230000000     0.511940000000     0.198683   
H9       H      0.891910000000     0.826020000000     0.501560000000     0.125125   
H10      H      0.810580000000     0.910850000000     0.511550000000     0.186014   
H11      H      0.844270000000     0.080390000000     0.485180000000     0.152583   
H12      H      0.931420000000     0.155110000000     0.537450000000     0.197886   
H13      H      0.059820000000     0.808570000000     0.450560000000     0.200538   
H14      H      0.781890000000     0.965610000000     0.518440000000     0.206451   
H15      H      0.915960000000     0.152160000000     0.477950000000     0.203101   
H16      H      0.200150000000     0.004610000000     0.463070000000     0.207089   
H17      H      0.901380000000     0.548950000000     0.054080000000     0.210478   
H18      H      0.933850000000     0.414240000000     0.897670000000     0.202939   
H19      H      0.077610000000     0.563200000000     0.929230000000     0.208543   
H20      H      0.060210000000     0.409530000000     0.073120000000     0.204743   
H21      H      0.848120000000     0.481630000000     0.875740000000     0.125855   
H22      H      0.939270000000     0.483890000000     0.802130000000     0.18599    
H23      H      0.106340000000     0.470230000000     0.850630000000     0.151136   
H24      H      0.175730000000     0.532320000000     0.943510000000     0.200046   
H25      H      0.134230000000     0.477410000000     0.102770000000     0.127227   
H26      H      0.051670000000     0.470500000000     0.171220000000     0.185695   
H27      H      0.884320000000     0.444330000000     0.126800000000     0.149769   
H28      H      0.809100000000     0.510540000000     0.040320000000     0.199297   
H29      H      0.173560000000     0.472510000000     0.928930000000     0.201997   
H30      H      0.995760000000     0.472520000000     0.198810000000     0.20114    
H31      H      0.818450000000     0.449740000000     0.048430000000     0.203476   
H32      H      0.993550000000     0.502090000000     0.777850000000     0.207173   
H33      H      0.417390000000     0.074240000000     0.045470000000     0.209869   
H34      H      0.559490000000     0.919720000000     0.075090000000     0.202098   
H35      H      0.423050000000     0.902850000000     0.918230000000     0.20874    
H36      H      0.568290000000     0.051490000000     0.900470000000     0.210312   
H37      H      0.485760000000     0.920120000000     0.156250000000     0.127613   
H38      H      0.504080000000     0.830880000000     0.098420000000     0.190209   
H39      H      0.519810000000     0.822930000000     0.923470000000     0.145335   
H40      H      0.463320000000     0.884220000000     0.828330000000     0.195775   
H41      H      0.505600000000     0.051590000000     0.812540000000     0.127218   
H42      H      0.508870000000     0.144340000000     0.873030000000     0.187455   
H43      H      0.517800000000     0.151190000000     0.046990000000     0.14961    
H44      H      0.453740000000     0.090110000000     0.142400000000     0.199814   
H45      H      0.524270000000     0.877140000000     0.837520000000     0.199798   
H46      H      0.493700000000     0.186430000000     0.915570000000     0.20204    
H47      H      0.515150000000     0.094170000000     0.134270000000     0.206458   
H48      H      0.458970000000     0.801250000000     0.069540000000     0.210167   
H49      H      0.712790000000     0.663530000000     0.948430000000     0.0452308  
H50      H      0.719420000000     0.834640000000     0.058660000000     0.0283394  
H51      H      0.848800000000     0.707790000000     0.900930000000     0.026793   
H52      H      0.824390000000     0.771400000000     0.951930000000     0.0432248  
H53      H      0.778190000000     0.818530000000     0.996880000000     0.043779   
H54      H      0.669670000000     0.703730000000     0.004100000000     0.0497566  
H55      H      0.776130000000     0.597180000000     0.939370000000     0.0396508  
H56      H      0.712810000000     0.881740000000     0.012500000000     0.0393078  
H57      H      0.831220000000     0.736130000000     0.008390000000     0.057584   
H58      H      0.655540000000     0.746360000000     0.954230000000     0.0567178  
H59      H      0.891110000000     0.705220000000     0.951080000000     0.0396809  
H60      H      0.663140000000     0.766010000000     0.065350000000     0.0269733  
H61      H      0.747230000000     0.650830000000     0.004040000000     0.0533244  
H62      H      0.735440000000     0.826540000000     0.946950000000     0.0509309  
H63      H      0.780520000000     0.647300000000     0.895570000000     0.0293192  
H64      H      0.827390000000     0.204240000000     0.026820000000     0.0450287  
H65      H      0.651970000000     0.192880000000     0.920520000000     0.0419932  
H66      H      0.803920000000     0.343170000000     0.907950000000     0.033276   
H67      H      0.807110000000     0.252740000000     0.895130000000     0.0491462  
H68      H      0.735340000000     0.192260000000     0.888080000000     0.0416433  
H69      H      0.746350000000     0.185360000000     0.049300000000     0.0488451  
H70      H      0.885890000000     0.272880000000     0.023490000000     0.0391492  
H71      H      0.663140000000     0.131950000000     0.895000000000     0.103792   
H72      H      0.744350000000     0.273240000000     0.908660000000     0.0459908  
H73      H      0.752370000000     0.128040000000     0.016450000000     0.0577165  
H74      H      0.772440000000     0.335380000000     0.966110000000     0.0352349  
H75      H      0.661720000000     0.198840000000     0.019370000000     0.0290015  
H76      H      0.795690000000     0.262360000000     0.038480000000     0.0540862  
H77      H      0.749670000000     0.134050000000     0.915780000000     0.0498064  
H78      H      0.882330000000     0.242850000000     0.965020000000     0.0318478  
H79      H      0.309700000000     0.711190000000     0.005860000000     0.04581    
H80      H      0.113500000000     0.722660000000     0.071420000000     0.0293515  
H81      H      0.270640000000     0.842000000000     0.929420000000     0.0269644  
H82      H      0.199660000000     0.819620000000     0.971240000000     0.0440254  
H83      H      0.144620000000     0.777320000000     0.012080000000     0.0435209  
H84      H      0.257780000000     0.674230000000     0.054370000000     0.0494483  
H85      H      0.374220000000     0.771650000000     0.993850000000     0.0399367  
H86      H      0.081140000000     0.710720000000     0.015860000000     0.0395343  
H87      H      0.222350000000     0.833720000000     0.031380000000     0.0610514  
H88      H      0.230780000000     0.653440000000     0.997600000000     0.0546053  
H89      H      0.264400000000     0.887310000000     0.976560000000     0.0454735  
H90      H      0.181300000000     0.671400000000     0.098580000000     0.0282189  
H91      H      0.308720000000     0.756470000000     0.054290000000     0.0558526  
H92      H      0.150270000000     0.731890000000     0.964420000000     0.0491518  
H93      H      0.331890000000     0.768760000000     0.943580000000     0.0293173  
H94      H      0.163890000000     0.211330000000     0.950070000000     0.0441137  
H95      H      0.326110000000     0.199990000000     0.886270000000     0.02849    
H96      H      0.219770000000     0.319820000000     0.048330000000     0.0306463  
H97      H      0.280940000000     0.317810000000     0.983910000000     0.045011   
H98      H      0.326370000000     0.267170000000     0.942510000000     0.0446557  
H99      H      0.210620000000     0.160860000000     0.984660000000     0.0477336  
H100     H      0.104040000000     0.265330000000     0.991940000000     0.0393578  
H101     H      0.382040000000     0.198520000000     0.920710000000     0.0368867  
H102     H      0.237090000000     0.332730000000     0.936330000000     0.0511791  
H103     H      0.267080000000     0.159050000000     0.016560000000     0.0566353  
H104     H      0.216070000000     0.376050000000     0.012910000000     0.0424014  
H105     H      0.257610000000     0.143660000000     0.905130000000     0.0265368  
H106     H      0.164160000000     0.270030000000     0.921740000000     0.0553353  
H107     H      0.337790000000     0.227720000000     0.995430000000     0.0537078  
H108     H      0.153790000000     0.251570000000     0.033400000000     0.0276417  
H109     H      0.845660000000     0.010480000000     0.794890000000     0.0430735  
H110     H      0.663120000000     0.948970000000     0.760230000000     0.0305203  
H111     H      0.827210000000     0.898270000000     0.690980000000     0.0268017  
H112     H      0.742770000000     0.926230000000     0.706690000000     0.044491   
H113     H      0.733190000000     0.889340000000     0.777280000000     0.0430335  
H114     H      0.772360000000     0.037780000000     0.828020000000     0.0460103  
H115     H      0.905030000000     0.011580000000     0.723310000000     0.0359612  
H116     H      0.645300000000     0.904950000000     0.807660000000     0.0288222  
H117     H      0.756090000000     0.987290000000     0.686600000000     0.0543075  
H118     H      0.752690000000     0.991680000000     0.872320000000     0.0581326  
H119     H      0.803320000000     0.928570000000     0.637090000000     0.0361125  
H120     H      0.691640000000     0.032720000000     0.785920000000     0.0285575  
H121     H      0.820660000000     0.041590000000     0.741160000000     0.0507792  
H122     H      0.729550000000     0.903430000000     0.840730000000     0.0519952  
H123     H      0.890820000000     0.950600000000     0.746110000000     0.0307203  
H124     H      0.295800000000     0.051450000000     0.761450000000     0.0527595  
H125     H      0.206720000000     0.915700000000     0.673260000000     0.0399826  
H126     H      0.263560000000     0.007860000000     0.857870000000     0.0436004  
H127     H      0.205150000000     0.955790000000     0.818040000000     0.0447423  
H128     H      0.165270000000     0.931100000000     0.753240000000     0.0420183  
H129     H      0.240140000000     0.060500000000     0.686640000000     0.0476016  
H130     H      0.344970000000     0.947840000000     0.756210000000     0.0313598  
H131     H      0.143440000000     0.903070000000     0.667710000000     0.106101   
H132     H      0.253250000000     0.916460000000     0.791900000000     0.0499206  
H133     H      0.174560000000     0.057040000000     0.688430000000     0.0565678  
H134     H      0.275050000000     0.944580000000     0.874580000000     0.0392995  
H135     H      0.245270000000     0.989040000000     0.629210000000     0.0283249  
H136     H      0.306590000000     0.013630000000     0.707710000000     0.0468812  
H137     H      0.129680000000     0.980760000000     0.726490000000     0.0564324  
H138     H      0.374990000000     0.005320000000     0.767170000000     0.0421467  
H139     H      0.136170000000     0.018460000000     0.197970000000     0.0422338  
H140     H      0.317460000000     0.065530000000     0.188400000000     0.0258179  
H141     H      0.178470000000     0.902350000000     0.287620000000     0.0292332  
H142     H      0.250380000000     0.952640000000     0.293800000000     0.0448913  
H143     H      0.298820000000     0.011350000000     0.257900000000     0.0464298  
H144     H      0.224810000000     0.061340000000     0.154600000000     0.0497818  
H145     H      0.072470000000     0.988410000000     0.256880000000     0.037221   
H146     H      0.364500000000     0.019040000000     0.196250000000     0.0393095  
H147     H      0.215910000000     0.003690000000     0.319610000000     0.0516872  
H148     H      0.189640000000     0.007160000000     0.142310000000     0.049109   
H149     H      0.184990000000     0.923090000000     0.349630000000     0.0354739  
H150     H      0.258480000000     0.021430000000     0.081680000000     0.0398254  
H151     H      0.142110000000     0.045290000000     0.256910000000     0.0483292  
H152     H      0.302430000000     0.956920000000     0.219790000000     0.058489   
H153     H      0.111330000000     0.939320000000     0.233400000000     0.0301426  
H154     H      0.647560000000     0.998960000000     0.272140000000     0.0457667  
H155     H      0.811970000000     0.918100000000     0.305350000000     0.0271528  
H156     H      0.715780000000     0.042770000000     0.134240000000     0.0378573  
H157     H      0.771090000000     0.983360000000     0.165490000000     0.0435792  
H158     H      0.812010000000     0.954430000000     0.225420000000     0.0437923  
H159     H      0.698490000000     0.018560000000     0.322730000000     0.0491962  
H160     H      0.593730000000     0.018350000000     0.204640000000     0.04162    
H161     H      0.868340000000     0.949720000000     0.292970000000     0.0399177  
H162     H      0.726480000000     0.934570000000     0.168420000000     0.0501405  
H163     H      0.750340000000     0.055800000000     0.308340000000     0.0576257  
H164     H      0.710170000000     0.988170000000     0.098220000000     0.0396077  
H165     H      0.746820000000     0.957480000000     0.366850000000     0.0271707  
H166     H      0.647640000000     0.948770000000     0.231260000000     0.0534649  
H167     H      0.824280000000     0.015720000000     0.247340000000     0.0546112  
H168     H      0.645600000000     0.059020000000     0.203080000000     0.0363163  
H169     H      0.068820000000     0.251040000000     0.659680000000     0.0450847  
H170     H      0.962120000000     0.276780000000     0.825780000000     0.0269102  
H171     H      0.088410000000     0.110230000000     0.713200000000     0.0288996  
H172     H      0.041820000000     0.146760000000     0.775530000000     0.0425182  
H173     H      0.011110000000     0.203550000000     0.820510000000     0.0427791  
H174     H      0.036110000000     0.308250000000     0.702490000000     0.0475263  
H175     H      0.064320000000     0.185680000000     0.598340000000     0.0434388  
H176     H      0.001980000000     0.269870000000     0.877580000000     0.0394265  
H177     H      0.985780000000     0.152130000000     0.740260000000     0.0485801  
H178     H      0.089430000000     0.302050000000     0.741450000000     0.0548976  
H179     H      0.029620000000     0.080110000000     0.713500000000     0.0379889  
H180     H      0.986230000000     0.348480000000     0.758300000000     0.0257129  
H181     H      0.006750000000     0.228320000000     0.652560000000     0.0511018  
H182     H      0.068830000000     0.235400000000     0.826800000000     0.0520853  
H183     H      0.107350000000     0.174520000000     0.647020000000     0.0320023  
H184     H      0.016080000000     0.784920000000     0.838720000000     0.0432473  
H185     H      0.984860000000     0.742830000000     0.654930000000     0.0297128  
H186     H      0.924120000000     0.663840000000     0.804480000000     0.0289339  
H187     H      0.957870000000     0.688740000000     0.725410000000     0.0449578  
H188     H      0.911390000000     0.753330000000     0.712890000000     0.0433745  
H189     H      0.041270000000     0.827980000000     0.773210000000     0.0457173  
H190     H      0.022330000000     0.712740000000     0.895130000000     0.0364571  
H191     H      0.937670000000     0.781970000000     0.627770000000     0.0389743  
H192     H      0.019870000000     0.678480000000     0.744420000000     0.053652   
H193     H      0.992800000000     0.862860000000     0.743420000000     0.0587756  
H194     H      0.967120000000     0.617630000000     0.783300000000     0.0365481  
H195     H      0.057610000000     0.782240000000     0.695410000000     0.026888   
H196     H      0.057390000000     0.737350000000     0.815260000000     0.0509192  
H197     H      0.917280000000     0.818230000000     0.708320000000     0.0523429  
H198     H      0.960210000000     0.726600000000     0.875600000000     0.030486   
H199     H      0.007220000000     0.808210000000     0.216810000000     0.0437328  
H200     H      0.013890000000     0.620910000000     0.208950000000     0.0324536  
H201     H      0.892630000000     0.782830000000     0.322830000000     0.0283348  
H202     H      0.935450000000     0.705920000000     0.323120000000     0.044878   
H203     H      0.965040000000     0.649740000000     0.276020000000     0.0450961  
H204     H      0.020710000000     0.727370000000     0.168140000000     0.052445   
H205     H      0.985040000000     0.876070000000     0.271640000000     0.0391883  
H206     H      0.956150000000     0.589250000000     0.210830000000     0.0371328  
H207     H      0.993620000000     0.732130000000     0.339930000000     0.0519446  
H208     H      0.965960000000     0.766110000000     0.165080000000     0.0483492  
H209     H      0.923910000000     0.775010000000     0.380250000000     0.0395052  
H210     H      0.970860000000     0.702380000000     0.100480000000     0.0373125  
H211     H      0.034450000000     0.798720000000     0.275300000000     0.0531138  
H212     H      0.910870000000     0.662010000000     0.239030000000     0.0571246  
H213     H      0.930420000000     0.842340000000     0.255960000000     0.0289271  
H214     H      0.042570000000     0.243520000000     0.297210000000     0.0434945  
H215     H      0.032450000000     0.258460000000     0.110480000000     0.0314591  
H216     H      0.923300000000     0.145120000000     0.273770000000     0.0326902  
H217     H      0.974850000000     0.133550000000     0.200850000000     0.0431175  
H218     H      0.997350000000     0.185240000000     0.143110000000     0.0432386  
H219     H      0.039370000000     0.296880000000     0.218560000000     0.0500375  
H220     H      0.012980000000     0.195480000000     0.369460000000     0.0413455  
H221     H      0.972560000000     0.252470000000     0.084080000000     0.0361841  
H222     H      0.028280000000     0.117810000000     0.236510000000     0.0500476  
H223     H      0.987420000000     0.291400000000     0.260730000000     0.0489349  
H224     H      0.951630000000     0.085070000000     0.274520000000     0.0413025  
H225     H      0.975760000000     0.357640000000     0.199560000000     0.0331132  
H226     H      0.065320000000     0.182040000000     0.295290000000     0.0496788  
H227     H      0.938420000000     0.214010000000     0.158110000000     0.0551863  
H228     H      0.961370000000     0.213850000000     0.331770000000     0.0326898  
N1       N      0.654220000000     0.827560000000     0.016950000000    -0.170598   
N2       N      0.836650000000     0.647380000000     0.949190000000    -0.169803   
N3       N      0.547030000000     0.741840000000     0.036230000000    -0.103487   
N4       N      0.660000000000     0.136110000000     0.974050000000    -0.166417   
N5       N      0.848130000000     0.313760000000     0.966520000000    -0.17132    
N6       N      0.646770000000     0.115650000000     0.108450000000    -0.108314   
N7       N      0.135070000000     0.655040000000     0.038620000000    -0.169135   
N8       N      0.323260000000     0.833480000000     0.985690000000    -0.167921   
N9       N      0.218360000000     0.555520000000     0.091940000000    -0.0964182  
N10      N      0.328160000000     0.141760000000     0.939320000000    -0.170383   
N11      N      0.156210000000     0.324410000000     0.003550000000    -0.17061    
N12      N      0.243470000000     0.035040000000     0.961510000000    -0.104203   
N13      N      0.661140000000     0.978080000000     0.832470000000    -0.172254   
N14      N      0.858720000000     0.968170000000     0.677120000000    -0.169447   
N15      N      0.652570000000     0.109200000000     0.866550000000    -0.159755   
N16      N      0.168770000000     0.971640000000     0.633990000000    -0.165448   
N17      N      0.329340000000     0.977550000000     0.826560000000    -0.169536   
N18      N      0.200940000000     0.081720000000     0.558670000000    -0.108811   
N19      N      0.316740000000     0.010880000000     0.133370000000    -0.171418   
N20      N      0.125830000000     0.957270000000     0.307590000000    -0.171506   
N21      N      0.253990000000     0.899610000000     0.101520000000    -0.108178   
N22      N      0.818130000000     0.983350000000     0.346710000000    -0.169703   
N23      N      0.648500000000     0.005380000000     0.146840000000    -0.166533   
N24      N      0.748690000000     0.056210000000     0.439660000000    -0.108388   
N25      N      0.020010000000     0.328690000000     0.825620000000    -0.169068   
N26      N      0.044100000000     0.129670000000     0.652280000000    -0.16893    
N27      N      0.079780000000     0.427960000000     0.751910000000    -0.108681   
N28      N      0.002600000000     0.818960000000     0.653860000000    -0.171644   
N29      N      0.990910000000     0.661610000000     0.844260000000    -0.170021   
N30      N      0.121950000000     0.873360000000     0.657990000000    -0.152615   
N31      N      0.965910000000     0.640610000000     0.150700000000    -0.171548   
N32      N      0.954460000000     0.829120000000     0.329210000000    -0.171643   
N33      N      0.852040000000     0.709240000000     0.134240000000    -0.110369   
N34      N      0.979300000000     0.310560000000     0.136060000000    -0.172243   
N35      N      0.980110000000     0.137720000000     0.326620000000    -0.16958    
N36      N      0.865860000000     0.303520000000     0.207250000000    -0.108537   
O1       O      0.845040000000     0.988380000000     0.427150000000    -0.353867   
O2       O      0.900710000000     0.985470000000     0.363030000000    -0.355696   
O3       O      0.025720000000     0.113170000000     0.571980000000    -0.356451   
O4       O      0.019760000000     0.052100000000     0.630720000000    -0.353024   
O5       O      0.994060000000     0.118180000000     0.407920000000    -0.360028   
O6       O      0.976830000000     0.057570000000     0.353100000000    -0.357063   
O7       O      0.866910000000     0.973400000000     0.593110000000    -0.350237   
O8       O      0.934850000000     0.981700000000     0.641920000000    -0.357099   
O9       O      0.845460000000     0.064690000000     0.518360000000    -0.342364   
O10      O      0.811990000000     0.946430000000     0.513530000000    -0.508774   
O11      O      0.936790000000     0.141580000000     0.504950000000    -0.514196   
O12      O      0.059180000000     0.150080000000     0.480610000000    -0.328542   
O13      O      0.935190000000     0.041430000000     0.450390000000    -0.468476   
O14      O      0.947670000000     0.039310000000     0.548150000000    -0.606557   
O15      O      0.984410000000     0.841130000000     0.575040000000    -0.360446   
O16      O      0.008810000000     0.899800000000     0.629420000000    -0.348444   
O17      O      0.117090000000     0.961640000000     0.391210000000    -0.366225   
O18      O      0.049820000000     0.974270000000     0.342090000000    -0.356756   
O19      O      0.140360000000     0.978390000000     0.555310000000    -0.34632    
O20      O      0.085880000000     0.968320000000     0.620110000000    -0.346567   
O21      O      0.964920000000     0.845450000000     0.410830000000    -0.364765   
O22      O      0.972070000000     0.907260000000     0.353040000000    -0.354816   
O23      O      0.049300000000     0.818750000000     0.483160000000    -0.515157   
O24      O      0.925020000000     0.809860000000     0.499310000000    -0.326492   
O25      O      0.147020000000     0.898910000000     0.479820000000    -0.340463   
O26      O      0.167770000000     0.020200000000     0.461210000000    -0.511066   
O27      O      0.049630000000     0.918450000000     0.532900000000    -0.61054    
O28      O      0.037730000000     0.920140000000     0.436080000000    -0.469358   
O29      O      0.938290000000     0.927220000000     0.552320000000    -0.473858   
O30      O      0.046980000000     0.032390000000     0.431930000000    -0.623319   
O31      O      0.925340000000     0.929670000000     0.448380000000    -0.625152   
O32      O      0.059840000000     0.030390000000     0.536180000000    -0.471149   
O33      O      0.974730000000     0.393610000000     0.120180000000    -0.366886   
O34      O      0.990350000000     0.340120000000     0.057190000000    -0.352691   
O35      O      0.855950000000     0.565190000000     0.958840000000    -0.357671   
O36      O      0.913360000000     0.623730000000     0.975970000000    -0.352      
O37      O      0.861770000000     0.397080000000     0.961860000000    -0.358728   
O38      O      0.925540000000     0.342890000000     0.978140000000    -0.357098   
O39      O      0.974710000000     0.559880000000     0.128410000000    -0.356533   
O40      O      0.970660000000     0.620410000000     0.069070000000    -0.356661   
O41      O      0.897060000000     0.478030000000     0.131770000000    -0.342215   
O42      O      0.015970000000     0.472840000000     0.169090000000    -0.51107    
O43      O      0.826870000000     0.480480000000     0.032030000000    -0.514525   
O44      O      0.829140000000     0.480290000000     0.907250000000    -0.328486   
O45      O      0.931130000000     0.430800000000     0.032460000000    -0.469055   
O46      O      0.925830000000     0.529100000000     0.036730000000    -0.608985   
O47      O      0.123280000000     0.571810000000     0.025920000000    -0.351323   
O48      O      0.060480000000     0.627070000000     0.011500000000    -0.352766   
O49      O      0.016430000000     0.410430000000     0.848740000000    -0.356829   
O50      O      0.011610000000     0.349510000000     0.907340000000    -0.354703   
O51      O      0.996870000000     0.577690000000     0.857040000000    -0.350122   
O52      O      0.999690000000     0.630530000000     0.922010000000    -0.358651   
O53      O      0.133740000000     0.406170000000     0.005930000000    -0.359122   
O54      O      0.075560000000     0.347600000000     0.992140000000    -0.35792    
O55      O      0.161280000000     0.500070000000     0.948060000000    -0.514078   
O56      O      0.154510000000     0.478420000000     0.072050000000    -0.319114   
O57      O      0.089430000000     0.502750000000     0.847140000000    -0.341577   
O58      O      0.973520000000     0.492860000000     0.806260000000    -0.509261   
O59      O      0.055600000000     0.539560000000     0.944680000000    -0.609745   
O60      O      0.060780000000     0.441480000000     0.940100000000    -0.469973   
O61      O      0.037140000000     0.535880000000     0.056300000000    -0.474775   
O62      O      0.949700000000     0.434920000000     0.921440000000    -0.62311    
O63      O      0.042390000000     0.431440000000     0.050960000000    -0.624457   
O64      O      0.944110000000     0.539510000000     0.926310000000    -0.473451   
O65      O      0.577740000000     0.120210000000     0.966860000000    -0.361724   
O66      O      0.633220000000     0.058330000000     0.986770000000    -0.345756   
O67      O      0.400300000000     0.007110000000     0.117650000000    -0.362187   
O68      O      0.345650000000     0.998970000000     0.054670000000    -0.35179    
O69      O      0.567190000000     0.002920000000     0.124330000000    -0.360397   
O70      O      0.628190000000     0.993600000000     0.065770000000    -0.34691    
O71      O      0.410280000000     0.122310000000     0.950380000000    -0.356041   
O72      O      0.351790000000     0.064030000000     0.965560000000    -0.347648   
O73      O      0.485170000000     0.151230000000     0.030640000000    -0.345569   
O74      O      0.499720000000     0.152420000000     0.906600000000    -0.511377   
O75      O      0.484640000000     0.076510000000     0.129830000000    -0.512326   
O76      O      0.481380000000     0.955330000000     0.165000000000    -0.329931   
O77      O      0.538510000000     0.048480000000     0.033550000000    -0.466259   
O78      O      0.439620000000     0.050810000000     0.029750000000    -0.610277   
O79      O      0.412250000000     0.977550000000     0.845540000000    -0.355093   
O80      O      0.352910000000     0.979910000000     0.906570000000    -0.350821   
O81      O      0.571870000000     0.848970000000     0.009390000000    -0.358918   
O82      O      0.630820000000     0.907800000000     0.999620000000    -0.358203   
O83      O      0.404800000000     0.852140000000     0.997480000000    -0.358175   
O84      O      0.347970000000     0.914220000000     0.985710000000    -0.347164   
O85      O      0.579730000000     0.968110000000     0.850520000000    -0.360765   
O86      O      0.634390000000     0.983610000000     0.912490000000    -0.350566   
O87      O      0.494010000000     0.896290000000     0.841390000000    -0.515858   
O88      O      0.500560000000     0.016520000000     0.804140000000    -0.324827   
O89      O      0.492240000000     0.815610000000     0.946800000000    -0.329761   
O90      O      0.482830000000     0.827560000000     0.070230000000    -0.513736   
O91      O      0.443490000000     0.924900000000     0.936670000000    -0.614166   
O92      O      0.542020000000     0.922390000000     0.939990000000    -0.470609   
O93      O      0.441340000000     0.036080000000     0.918800000000    -0.472664   
O94      O      0.539480000000     0.937500000000     0.051260000000    -0.623529   
O95      O      0.546400000000     0.033650000000     0.922630000000    -0.62415    
O96      O      0.433680000000     0.939110000000     0.048350000000    -0.475726   
Zr1      Zr     0.890660000000     0.987250000000     0.506030000000     1.28665    
Zr2      Zr     0.002220000000     0.081620000000     0.491140000000     1.29148    
Zr3      Zr     0.982610000000     0.878180000000     0.492570000000     1.29761    
Zr4      Zr     0.094390000000     0.972730000000     0.478150000000     1.29649    
Zr5      Zr     0.981310000000     0.981560000000     0.400500000000     1.27134    
Zr6      Zr     0.004290000000     0.977800000000     0.583850000000     1.26091    
Zr7      Zr     0.977340000000     0.478930000000     0.089510000000     1.2959     
Zr8      Zr     0.892270000000     0.482120000000     0.970550000000     1.29178    
Zr9      Zr     0.094310000000     0.488350000000     0.006680000000     1.29614    
Zr10     Zr     0.008960000000     0.491980000000     0.887450000000     1.29083    
Zr11     Zr     0.998380000000     0.393040000000     0.984450000000     1.27022    
Zr12     Zr     0.988690000000     0.577360000000     0.993020000000     1.26535    
Zr13     Zr     0.492630000000     0.087670000000     0.968060000000     1.29548    
Zr14     Zr     0.485580000000     0.999390000000     0.086220000000     1.29554    
Zr15     Zr     0.495090000000     0.974070000000     0.883710000000     1.29215    
Zr16     Zr     0.488800000000     0.885650000000     0.002330000000     1.29853    
Zr17     Zr     0.583970000000     0.984550000000     0.988340000000     1.26524    
Zr18     Zr     0.397850000000     0.988410000000     0.981970000000     1.27169    


