data_structure

_audit_creation_method RASPA-1.0
_audit_creation_date 2023-6-5
_audit_author_name 'Poobodin Mano'

_cell_length_a    26.2096
_cell_length_b    27.1995
_cell_length_c    27.1063
_cell_angle_alpha 89.2565
_cell_angle_beta  89.2563
_cell_angle_gamma 89.2563
_cell_volume      19318.9

_symmetry_cell_setting          triclinic
_symmetry_space_group_name_Hall 'P 1'
_symmetry_space_group_name_H-M  'P 1'
_symmetry_Int_Tables_number     1

_symmetry_equiv_pos_as_xyz 'x,y,z'

loop_
_atom_site_label
_atom_site_type_symbol
_atom_site_fract_x
_atom_site_fract_y
_atom_site_fract_z
_atom_site_charge
C1       C      0.871090000000     0.976010000000     0.367540000000     0.380689   
C2       C      0.998990000000     0.104530000000     0.617720000000     0.380978   
C3       C      0.986630000000     0.107470000000     0.362420000000     0.390999   
C4       C      0.884400000000     0.971790000000     0.624920000000     0.382027   
C5       C      0.014840000000     0.862500000000     0.617300000000     0.381575   
C6       C      0.119970000000     0.000290000000     0.353580000000     0.389564   
C7       C      0.133800000000     0.996960000000     0.611280000000     0.376452   
C8       C      0.004220000000     0.865390000000     0.360860000000     0.377265   
C9       C      0.969310000000     0.357910000000     0.102550000000     0.385215   
C10      C      0.894310000000     0.625930000000     0.964640000000     0.384118   
C11      C      0.868960000000     0.370960000000     0.972540000000     0.393201   
C12      C      0.010270000000     0.610560000000     0.107100000000     0.39288    
C13      C      0.140070000000     0.599640000000     0.006690000000     0.38403    
C14      C      0.001990000000     0.358900000000     0.864500000000     0.394999   
C15      C      0.032010000000     0.613370000000     0.865010000000     0.391201   
C16      C      0.116660000000     0.345100000000     0.985330000000     0.388121   
C17      C      0.631400000000     0.098640000000     0.943480000000     0.379527   
C18      C      0.368240000000     0.010680000000     0.102110000000     0.383457   
C19      C      0.633090000000     0.029190000000     0.102590000000     0.388237   
C20      C      0.365860000000     0.088200000000     0.949250000000     0.377737   
C21      C      0.376520000000     0.936200000000     0.870940000000     0.382771   
C22      C      0.644620000000     0.872000000000     0.033710000000     0.390574   
C23      C      0.379230000000     0.858270000000     0.029440000000     0.391578   
C24      C      0.642230000000     0.938770000000     0.876910000000     0.390673   
C25      C      0.808740000000     0.661300000000     0.946310000000     0.0116257  
C26      C      0.737460000000     0.860210000000     0.048730000000     0.0167153  
C27      C      0.680180000000     0.790850000000     0.067000000000     0.11278    
C28      C      0.775870000000     0.825250000000     0.022490000000    -0.104291   
C29      C      0.777540000000     0.685220000000     0.987450000000    -0.099713   
C30      C      0.705890000000     0.756640000000     0.029380000000    -0.124986   
C31      C      0.794280000000     0.737760000000     0.997240000000     0.0215374  
C32      C      0.760750000000     0.771230000000     0.017890000000     0.0350229  
C33      C      0.881810000000     0.716880000000     0.956730000000     0.0152712  
C34      C      0.851470000000     0.748610000000     0.993780000000    -0.102969   
C35      C      0.652740000000     0.181150000000     0.909320000000     0.01146    
C36      C      0.834420000000     0.291460000000     0.000120000000     0.0221891  
C37      C      0.789040000000     0.344510000000     0.934920000000     0.107227   
C38      C      0.817950000000     0.246490000000     0.971710000000    -0.107911   
C39      C      0.674980000000     0.220840000000     0.941530000000    -0.0981938  
C40      C      0.745930000000     0.305950000000     0.942290000000    -0.121522   
C41      C      0.732500000000     0.213830000000     0.947050000000     0.0148707  
C42      C      0.764330000000     0.253270000000     0.951970000000     0.0394342  
C43      C      0.722410000000     0.121790000000     0.930100000000     0.010439   
C44      C      0.750720000000     0.161290000000     0.958700000000    -0.0971919  
C45      C      0.164950000000     0.687060000000     0.010750000000     0.00945958 
C46      C      0.356070000000     0.780240000000     0.070720000000     0.0109708  
C47      C      0.286210000000     0.828990000000     0.029050000000     0.110437   
C48      C      0.335710000000     0.731970000000     0.050320000000    -0.107199   
C49      C      0.187430000000     0.713790000000     0.054190000000    -0.0990481  
C50      C      0.266350000000     0.781200000000     0.007370000000    -0.129276   
C51      C      0.244100000000     0.703490000000     0.054680000000     0.0163371  
C52      C      0.279440000000     0.737350000000     0.039880000000     0.030764   
C53      C      0.231180000000     0.619020000000     0.022100000000     0.0077228  
C54      C      0.256670000000     0.649400000000     0.062480000000    -0.0992663  
C55      C      0.335240000000     0.171580000000     0.926160000000     0.00879054 
C56      C      0.124570000000     0.258570000000     0.962280000000     0.0221164  
C57      C      0.204300000000     0.310370000000     0.976530000000     0.109298   
C58      C      0.160130000000     0.213520000000     0.964690000000    -0.108746   
C59      C      0.291220000000     0.192360000000     0.895600000000    -0.0972992  
C60      C      0.230520000000     0.275620000000     0.939240000000    -0.126411   
C61      C      0.241690000000     0.185030000000     0.923760000000     0.0122567  
C62      C      0.212380000000     0.222860000000     0.942180000000     0.0399826  
C63      C      0.274520000000     0.107740000000     0.962860000000     0.00545475 
C64      C      0.230780000000     0.131230000000     0.933470000000    -0.0957127  
C65      C      0.871070000000     0.965560000000     0.715450000000     0.00884994 
C66      C      0.670640000000     0.913040000000     0.794710000000     0.0240616  
C67      C      0.734480000000     0.919240000000     0.866580000000     0.107351   
C68      C      0.718100000000     0.905950000000     0.762290000000    -0.110161   
C69      C      0.834980000000     0.992350000000     0.751360000000    -0.0998447  
C70      C      0.776750000000     0.936010000000     0.829650000000    -0.125527   
C71      C      0.781590000000     0.973380000000     0.744280000000     0.0136382  
C72      C      0.758920000000     0.941370000000     0.776890000000     0.0370219  
C73      C      0.797000000000     0.955390000000     0.656440000000     0.00984987 
C74      C      0.762770000000     0.983430000000     0.692680000000    -0.100107   
C75      C      0.155080000000     0.016700000000     0.697720000000     0.0126642  
C76      C      0.353970000000     0.913330000000     0.785500000000     0.00986316 
C77      C      0.284170000000     0.920700000000     0.846850000000     0.107939   
C78      C      0.329830000000     0.951940000000     0.750880000000    -0.102033   
C79      C      0.183390000000     0.984950000000     0.735800000000    -0.101071   
C80      C      0.256850000000     0.961570000000     0.816380000000    -0.123938   
C81      C      0.240280000000     0.977430000000     0.724840000000     0.0163233  
C82      C      0.273080000000     0.961700000000     0.761680000000     0.0232981  
C83      C      0.224390000000     0.007970000000     0.635280000000     0.0118319  
C84      C      0.257030000000     0.976320000000     0.670490000000    -0.0998063  
C85      C      0.337840000000     0.040810000000     0.183410000000     0.0086684  
C86      C      0.127750000000     0.023650000000     0.266400000000     0.0219005  
C87      C      0.207330000000     0.014030000000     0.320270000000     0.110009   
C88      C      0.163560000000     0.019360000000     0.221770000000    -0.107619   
C89      C      0.296800000000     0.079420000000     0.195570000000    -0.0979502  
C90      C      0.231580000000     0.050010000000     0.282670000000    -0.127269   
C91      C      0.245160000000     0.056030000000     0.190440000000     0.0140987  
C92      C      0.215150000000     0.042110000000     0.229810000000     0.0416817  
C93      C      0.276610000000     0.001780000000     0.123670000000     0.00678406 
C94      C      0.235760000000     0.039860000000     0.138050000000    -0.0962224  
C95      C      0.779920000000     0.974020000000     0.343200000000     0.0134951  
C96      C      0.724960000000     0.037140000000     0.121440000000     0.0091415  
C97      C      0.663800000000     0.068440000000     0.183050000000     0.111577   
C98      C      0.751320000000     0.003650000000     0.159870000000    -0.101785   
C99      C      0.752500000000     0.007660000000     0.305860000000    -0.0998188  
C100     C      0.682510000000     0.033240000000     0.223980000000    -0.127271   
C101     C      0.768020000000     0.998960000000     0.252010000000     0.0205891  
C102     C      0.736810000000     0.014210000000     0.213850000000     0.0252716  
C103     C      0.848200000000     0.952720000000     0.282580000000     0.015898   
C104     C      0.823480000000     0.983870000000     0.241720000000    -0.102011   
C105     C      0.966250000000     0.183300000000     0.649120000000     0.0134074  
C106     C      0.038290000000     0.308610000000     0.798580000000     0.0155916  
C107     C      0.945240000000     0.298800000000     0.826850000000     0.110191   
C108     C      0.036380000000     0.253100000000     0.789200000000    -0.105773   
C109     C      0.940890000000     0.196150000000     0.698510000000    -0.10274    
C110     C      0.940520000000     0.273850000000     0.775990000000    -0.124312   
C111     C      0.981800000000     0.199760000000     0.737060000000     0.0174569  
C112     C      0.985920000000     0.239830000000     0.766330000000     0.0248185  
C113     C      0.036600000000     0.136320000000     0.693360000000     0.0106463  
C114     C      0.015510000000     0.154320000000     0.743010000000    -0.100191   
C115     C      0.016600000000     0.841880000000     0.706890000000     0.00807884 
C116     C      0.037920000000     0.638410000000     0.778190000000     0.0246146  
C117     C      0.047490000000     0.701810000000     0.847910000000     0.108126   
C118     C      0.049670000000     0.681550000000     0.743660000000    -0.111546   
C119     C      0.980130000000     0.809430000000     0.737430000000    -0.0979948  
C120     C      0.025360000000     0.741720000000     0.812620000000    -0.125827   
C121     C      0.993020000000     0.756020000000     0.726910000000     0.0130399  
C122     C      0.019900000000     0.726780000000     0.759280000000     0.0386402  
C123     C      0.023280000000     0.774770000000     0.642580000000     0.007907   
C124     C      0.985580000000     0.744320000000     0.673120000000    -0.0976411  
C125     C      0.010530000000     0.845480000000     0.271710000000     0.0105087  
C126     C      0.035200000000     0.632400000000     0.191060000000     0.021628   
C127     C      0.009580000000     0.699170000000     0.128340000000     0.10848    
C128     C      0.016950000000     0.667400000000     0.231370000000    -0.107282   
C129     C      0.046270000000     0.808020000000     0.246710000000    -0.0983798  
C130     C      0.036340000000     0.733740000000     0.164420000000    -0.125483   
C131     C      0.027330000000     0.755770000000     0.255050000000     0.0146239  
C132     C      0.026220000000     0.721110000000     0.218560000000     0.0400389  
C133     C      0.982970000000     0.781600000000     0.333830000000     0.00799599 
C134     C      0.016880000000     0.742740000000     0.309070000000    -0.0964878  
C135     C      0.961600000000     0.268990000000     0.122590000000     0.0108457  
C136     C      0.000560000000     0.192810000000     0.335930000000     0.0206005  
C137     C      0.971970000000     0.128010000000     0.274400000000     0.109536   
C138     C      0.976780000000     0.231220000000     0.301570000000    -0.107557   
C139     C      0.998900000000     0.244980000000     0.158650000000    -0.0981195  
C140     C      0.993000000000     0.164390000000     0.235370000000    -0.126886   
C141     C      0.981350000000     0.254010000000     0.211680000000     0.0133272  
C142     C      0.982920000000     0.218100000000     0.247590000000     0.0403953  
C143     C      0.935110000000     0.331710000000     0.184520000000     0.0104188  
C144     C      0.969000000000     0.307630000000     0.223760000000    -0.0971596  
H1       H      0.921020000000     0.053630000000     0.564660000000     0.209893   
H2       H      0.071000000000     0.067550000000     0.412640000000     0.203694   
H3       H      0.090580000000     0.914040000000     0.555090000000     0.209029   
H4       H      0.925820000000     0.904180000000     0.420790000000     0.204432   
H5       H      0.079410000000     0.150540000000     0.479970000000     0.124637   
H6       H      0.170320000000     0.085580000000     0.476920000000     0.185745   
H7       H      0.165300000000     0.910650000000     0.449010000000     0.16044    
H8       H      0.103160000000     0.823030000000     0.513810000000     0.199795   
H9       H      0.925860000000     0.817770000000     0.490330000000     0.125727   
H10      H      0.835550000000     0.883610000000     0.493380000000     0.185083   
H11      H      0.835780000000     0.060060000000     0.469700000000     0.15199    
H12      H      0.902710000000     0.145600000000     0.522260000000     0.200462   
H13      H      0.102380000000     0.828020000000     0.452230000000     0.205892   
H14      H      0.793680000000     0.929560000000     0.503290000000     0.202103   
H15      H      0.901030000000     0.144200000000     0.460640000000     0.208612   
H16      H      0.212150000000     0.038520000000     0.476680000000     0.206261   
H17      H      0.923990000000     0.562840000000     0.051530000000     0.21403    
H18      H      0.929360000000     0.422160000000     0.898760000000     0.222803   
H19      H      0.099590000000     0.547190000000     0.919490000000     0.215868   
H20      H      0.065730000000     0.402560000000     0.069550000000     0.20481    
H21      H      0.849790000000     0.492370000000     0.878550000000     0.136535   
H22      H      0.936240000000     0.484920000000     0.805650000000     0.197954   
H23      H      0.111630000000     0.448430000000     0.843560000000     0.145805   
H24      H      0.182290000000     0.446430000000     0.916710000000     0.202654   
H25      H      0.153280000000     0.462210000000     0.093850000000     0.127492   
H26      H      0.072460000000     0.461230000000     0.162890000000     0.185896   
H27      H      0.891960000000     0.474980000000     0.125890000000     0.146848   
H28      H      0.823400000000     0.534670000000     0.044420000000     0.201727   
H29      H      0.199270000000     0.502470000000     0.934520000000     0.203992   
H30      H      0.019350000000     0.476820000000     0.194240000000     0.203137   
H31      H      0.822030000000     0.473300000000     0.049270000000     0.202989   
H32      H      0.991260000000     0.495450000000     0.775490000000     0.207507   
H33      H      0.426550000000     0.071810000000     0.032850000000     0.213351   
H34      H      0.582170000000     0.936430000000     0.087410000000     0.205249   
H35      H      0.439540000000     0.879480000000     0.942480000000     0.214469   
H36      H      0.580350000000     0.028200000000     0.889580000000     0.203503   
H37      H      0.515070000000     0.946650000000     0.166920000000     0.126584   
H38      H      0.519450000000     0.850180000000     0.130760000000     0.19304    
H39      H      0.548950000000     0.810070000000     0.959500000000     0.158417   
H40      H      0.481020000000     0.846690000000     0.854250000000     0.202824   
H41      H      0.507800000000     0.010320000000     0.807330000000     0.124905   
H42      H      0.502700000000     0.105250000000     0.843760000000     0.184566   
H43      H      0.528140000000     0.155630000000     0.009660000000     0.149075   
H44      H      0.503480000000     0.121220000000     0.096050000000     0.209879   
H45      H      0.544010000000     0.844770000000     0.863400000000     0.208879   
H46      H      0.492530000000     0.156680000000     0.875910000000     0.202147   
H47      H      0.478410000000     0.098580000000     0.148540000000     0.216866   
H48      H      0.506730000000     0.799850000000     0.098450000000     0.219191   
H49      H      0.737180000000     0.683990000000     0.975620000000     0.0522771  
H50      H      0.749140000000     0.863350000000     0.087880000000     0.0263843  
H51      H      0.876430000000     0.733130000000     0.919240000000     0.032163   
H52      H      0.858410000000     0.787420000000     0.982820000000     0.0496004  
H53      H      0.812340000000     0.827360000000     0.042790000000     0.0488672  
H54      H      0.704530000000     0.718880000000     0.045480000000     0.0720176  
H55      H      0.796640000000     0.622540000000     0.942600000000     0.0450979  
H56      H      0.741240000000     0.897620000000     0.032260000000     0.0435309  
H57      H      0.867690000000     0.742680000000     0.031030000000     0.0709651  
H58      H      0.684600000000     0.757680000000     0.994150000000     0.083395   
H59      H      0.923130000000     0.719000000000     0.965020000000     0.0467809  
H60      H      0.703520000000     0.787700000000     0.101160000000     0.0262399  
H61      H      0.781550000000     0.662970000000     0.021910000000     0.0581262  
H62      H      0.783080000000     0.840070000000     0.984720000000     0.0673967  
H63      H      0.799920000000     0.680710000000     0.910970000000     0.0370481  
H64      H      0.663240000000     0.256560000000     0.925190000000     0.0475768  
H65      H      0.808590000000     0.296060000000     0.032670000000     0.0277754  
H66      H      0.737340000000     0.121950000000     0.891490000000     0.0296232  
H67      H      0.791830000000     0.156210000000     0.949360000000     0.045283   
H68      H      0.820260000000     0.215230000000     0.998370000000     0.046513   
H69      H      0.722150000000     0.317150000000     0.974600000000     0.0561435  
H70      H      0.610800000000     0.187040000000     0.907170000000     0.0365923  
H71      H      0.873200000000     0.284260000000     0.014950000000     0.0413719  
H72      H      0.745380000000     0.154240000000     0.998920000000     0.0531222  
H73      H      0.721080000000     0.307810000000     0.909640000000     0.0735677  
H74      H      0.731550000000     0.085100000000     0.946450000000     0.0393453  
H75      H      0.771230000000     0.381070000000     0.942590000000     0.032717   
H76      H      0.656960000000     0.218620000000     0.978840000000     0.0557523  
H77      H      0.845160000000     0.239070000000     0.940890000000     0.0703399  
H78      H      0.668710000000     0.185490000000     0.871290000000     0.0315266  
H79      H      0.177010000000     0.753410000000     0.053740000000     0.0487735  
H80      H      0.339100000000     0.785510000000     0.108160000000     0.0328779  
H81      H      0.252520000000     0.625090000000     0.986860000000     0.0339872  
H82      H      0.298050000000     0.640710000000     0.061440000000     0.0475337  
H83      H      0.343750000000     0.703130000000     0.078550000000     0.0492042  
H84      H      0.225260000000     0.785460000000     0.999200000000     0.0685354  
H85      H      0.123320000000     0.695250000000     0.010240000000     0.0525019  
H86      H      0.397800000000     0.775450000000     0.075970000000     0.0416886  
H87      H      0.241770000000     0.637460000000     0.099240000000     0.0537665  
H88      H      0.285220000000     0.775170000000     0.970910000000     0.0781085  
H89      H      0.235420000000     0.579410000000     0.031980000000     0.0429949  
H90      H      0.265580000000     0.834020000000     0.064900000000     0.0253701  
H91      H      0.170040000000     0.698890000000     0.088850000000     0.054066   
H92      H      0.356640000000     0.722390000000     0.015770000000     0.0597482  
H93      H      0.181810000000     0.702100000000     0.975930000000     0.0466609  
H94      H      0.298810000000     0.230990000000     0.884630000000     0.0435631  
H95      H      0.111280000000     0.263580000000     0.923670000000     0.0302766  
H96      H      0.271850000000     0.120890000000     0.001520000000     0.0370647  
H97      H      0.194930000000     0.124370000000     0.954340000000     0.045543   
H98      H      0.140460000000     0.184490000000     0.943970000000     0.0454718  
H99      H      0.223350000000     0.289820000000     0.901260000000     0.0534647  
H100     H      0.370770000000     0.174420000000     0.903490000000     0.0383401  
H101     H      0.090090000000     0.250470000000     0.985210000000     0.0396035  
H102     H      0.227600000000     0.112220000000     0.897590000000     0.0519009  
H103     H      0.272200000000     0.277350000000     0.945940000000     0.0629177  
H104     H      0.268400000000     0.067370000000     0.964160000000     0.0510503  
H105     H      0.214150000000     0.347940000000     0.962800000000     0.0287574  
H106     H      0.289620000000     0.171760000000     0.860490000000     0.0508256  
H107     H      0.164020000000     0.200330000000     0.003380000000     0.0684079  
H108     H      0.339980000000     0.194830000000     0.959210000000     0.0374899  
H109     H      0.849940000000     0.987400000000     0.789130000000     0.0434324  
H110     H      0.647030000000     0.943290000000     0.778380000000     0.0336962  
H111     H      0.791390000000     0.915250000000     0.662240000000     0.0308442  
H112     H      0.721930000000     0.975420000000     0.687310000000     0.0453234  
H113     H      0.706920000000     0.908040000000     0.723150000000     0.048278   
H114     H      0.789600000000     0.972430000000     0.842520000000     0.0525642  
H115     H      0.909340000000     0.982350000000     0.718210000000     0.0404133  
H116     H      0.647190000000     0.879280000000     0.793620000000     0.0410172  
H117     H      0.766150000000     0.023430000000     0.684430000000     0.0536694  
H118     H      0.810200000000     0.910460000000     0.830860000000     0.0641026  
H119     H      0.784330000000     0.964750000000     0.618460000000     0.0381805  
H120     H      0.738790000000     0.943630000000     0.898960000000     0.031701   
H121     H      0.835580000000     0.032470000000     0.742990000000     0.0515121  
H122     H      0.733420000000     0.868020000000     0.766650000000     0.0697548  
H123     H      0.874970000000     0.926510000000     0.727730000000     0.0317698  
H124     H      0.177240000000     0.004040000000     0.771360000000     0.0464867  
H125     H      0.339390000000     0.876580000000     0.775440000000     0.031361   
H126     H      0.235380000000     0.047080000000     0.639320000000     0.0293294  
H127     H      0.296510000000     0.990100000000     0.665860000000     0.0450722  
H128     H      0.336550000000     0.937790000000     0.713160000000     0.0465602  
H129     H      0.215530000000     0.954330000000     0.820420000000     0.0678834  
H130     H      0.113400000000     0.013820000000     0.705010000000     0.0399925  
H131     H      0.395830000000     0.912300000000     0.778560000000     0.0415935  
H132     H      0.256360000000     0.937540000000     0.658090000000     0.053589   
H133     H      0.265010000000     0.998130000000     0.832120000000     0.0715091  
H134     H      0.233710000000     0.997230000000     0.596740000000     0.0381568  
H135     H      0.270280000000     0.885630000000     0.831000000000     0.0298852  
H136     H      0.165170000000     0.948300000000     0.738260000000     0.0556605  
H137     H      0.350540000000     0.987110000000     0.754220000000     0.0551765  
H138     H      0.165230000000     0.055780000000     0.703650000000     0.0272662  
H139     H      0.303500000000     0.096050000000     0.231970000000     0.0461275  
H140     H      0.113800000000     0.062370000000     0.269080000000     0.0266804  
H141     H      0.269710000000     0.967450000000     0.145360000000     0.0431278  
H142     H      0.197840000000     0.023790000000     0.131900000000     0.0473249  
H143     H      0.143600000000     0.038710000000     0.191100000000     0.0464963  
H144     H      0.221010000000     0.088300000000     0.292910000000     0.0543361  
H145     H      0.375660000000     0.058640000000     0.185420000000     0.0406161  
H146     H      0.093780000000     0.000850000000     0.259120000000     0.0419562  
H147     H      0.238740000000     0.072230000000     0.112730000000     0.0535557  
H148     H      0.273500000000     0.045530000000     0.286530000000     0.0631063  
H149     H      0.271590000000     0.992840000000     0.084180000000     0.0556346  
H150     H      0.215090000000     0.030280000000     0.356950000000     0.0267778  
H151     H      0.300020000000     0.110280000000     0.168420000000     0.0545179  
H152     H      0.168600000000     0.980180000000     0.211580000000     0.0687328  
H153     H      0.336700000000     0.011120000000     0.212010000000     0.0418701  
H154     H      0.711170000000     0.001070000000     0.311900000000     0.0479998  
H155     H      0.744350000000     0.073330000000     0.120940000000     0.0320872  
H156     H      0.833980000000     0.914490000000     0.279680000000     0.0273189  
H157     H      0.826890000000     0.961180000000     0.208090000000     0.0459354  
H158     H      0.792760000000     0.008460000000     0.152950000000     0.0463508  
H159     H      0.680190000000     0.054450000000     0.258660000000     0.0643337  
H160     H      0.771910000000     0.988000000000     0.380910000000     0.0368583  
H161     H      0.731490000000     0.021110000000     0.084370000000     0.0411157  
H162     H      0.846070000000     0.017730000000     0.235670000000     0.0696246  
H163     H      0.656850000000     0.001130000000     0.227390000000     0.0742256  
H164     H      0.890070000000     0.950920000000     0.275630000000     0.0427746  
H165     H      0.690410000000     0.100100000000     0.184060000000     0.0242261  
H166     H      0.760410000000     0.046590000000     0.314760000000     0.0616896  
H167     H      0.741800000000     0.964800000000     0.152210000000     0.0518176  
H168     H      0.763590000000     0.936560000000     0.341030000000     0.0287417  
H169     H      0.919150000000     0.231060000000     0.693080000000     0.0487764  
H170     H      0.075340000000     0.317590000000     0.815750000000     0.02665    
H171     H      0.068590000000     0.160620000000     0.682000000000     0.0295384  
H172     H      0.047800000000     0.159680000000     0.768370000000     0.0432421  
H173     H      0.041060000000     0.232570000000     0.824620000000     0.0520109  
H174     H      0.904730000000     0.252350000000     0.776050000000     0.0698011  
H175     H      0.935900000000     0.178780000000     0.621250000000     0.0298685  
H176     H      0.036230000000     0.329060000000     0.762840000000     0.0357909  
H177     H      0.991780000000     0.124750000000     0.759740000000     0.0522876  
H178     H      0.938700000000     0.302160000000     0.746090000000     0.0752342  
H179     H      0.052960000000     0.098650000000     0.698230000000     0.0373086  
H180     H      0.943890000000     0.269520000000     0.855930000000     0.0295933  
H181     H      0.913500000000     0.167030000000     0.709610000000     0.0533078  
H182     H      0.068710000000     0.243430000000     0.764010000000     0.0463562  
H183     H      0.990850000000     0.214270000000     0.636750000000     0.035461   
H184     H      0.982160000000     0.819580000000     0.776780000000     0.0445386  
H185     H      0.999420000000     0.624270000000     0.769560000000     0.0323538  
H186     H      0.062750000000     0.762630000000     0.651790000000     0.030448   
H187     H      0.988080000000     0.704930000000     0.663850000000     0.045584   
H188     H      0.042670000000     0.669250000000     0.705800000000     0.0487027  
H189     H      0.986590000000     0.751630000000     0.826900000000     0.0555329  
H190     H      0.005020000000     0.880910000000     0.712280000000     0.0414474  
H191     H      0.065560000000     0.608040000000     0.770230000000     0.0404484  
H192     H      0.946230000000     0.755610000000     0.662510000000     0.0554529  
H193     H      0.049070000000     0.775280000000     0.814210000000     0.0655818  
H194     H      0.017490000000     0.766760000000     0.602980000000     0.0423617  
H195     H      0.026230000000     0.707730000000     0.883330000000     0.0351874  
H196     H      0.940270000000     0.817560000000     0.726000000000     0.0531716  
H197     H      0.090890000000     0.689920000000     0.743880000000     0.0724338  
H198     H      0.055770000000     0.837100000000     0.721670000000     0.033265   
H199     H      0.051130000000     0.819240000000     0.207670000000     0.0469238  
H200     H      0.077640000000     0.632530000000     0.189410000000     0.0275287  
H201     H      0.943930000000     0.778920000000     0.318500000000     0.032043   
H202     H      0.996870000000     0.707390000000     0.314410000000     0.046235   
H203     H      0.038510000000     0.656440000000     0.264900000000     0.0464136  
H204     H      0.078240000000     0.731970000000     0.157590000000     0.054935   
H205     H      0.027540000000     0.882560000000     0.267510000000     0.0428712  
H206     H      0.023910000000     0.594580000000     0.202320000000     0.0384427  
H207     H      0.053840000000     0.739910000000     0.328620000000     0.0531424  
H208     H      0.022760000000     0.771370000000     0.154840000000     0.0618334  
H209     H      0.979870000000     0.772640000000     0.373860000000     0.0413269  
H210     H      0.028160000000     0.706180000000     0.091720000000     0.0318654  
H211     H      0.084670000000     0.810570000000     0.263380000000     0.0574923  
H212     H      0.975690000000     0.661800000000     0.239000000000     0.0692091  
H213     H      0.973390000000     0.845990000000     0.252300000000     0.0333711  
H214     H      0.003730000000     0.205980000000     0.148530000000     0.0453019  
H215     H      0.042830000000     0.194120000000     0.331900000000     0.0257724  
H216     H      0.896350000000     0.315720000000     0.188120000000     0.0324741  
H217     H      0.948050000000     0.311890000000     0.259300000000     0.0459506  
H218     H      0.996610000000     0.266120000000     0.309290000000     0.0468171  
H219     H      0.034930000000     0.158670000000     0.231400000000     0.0541137  
H220     H      0.975910000000     0.263030000000     0.084330000000     0.0409776  
H221     H      0.991130000000     0.203630000000     0.374440000000     0.0409331  
H222     H      0.005300000000     0.328110000000     0.226000000000     0.0511549  
H223     H      0.974980000000     0.154420000000     0.200120000000     0.0611706  
H224     H      0.931220000000     0.371680000000     0.191930000000     0.0371702  
H225     H      0.991100000000     0.092180000000     0.265880000000     0.0292565  
H226     H      0.036970000000     0.261940000000     0.153260000000     0.0553727  
H227     H      0.935730000000     0.236400000000     0.310940000000     0.0688424  
H228     H      0.924120000000     0.250490000000     0.126500000000     0.0320576  
N1       N      0.684640000000     0.842030000000     0.048300000000    -0.174111   
N2       N      0.863200000000     0.666130000000     0.956840000000    -0.167791   
N3       N      0.627410000000     0.776350000000     0.080310000000    -0.02734    
N4       N      0.831540000000     0.336660000000     0.969530000000    -0.17582    
N5       N      0.667250000000     0.132430000000     0.929180000000    -0.170416   
N6       N      0.809530000000     0.347090000000     0.883780000000    -0.027095   
N7       N      0.342240000000     0.823720000000     0.039600000000    -0.171179   
N8       N      0.177120000000     0.633800000000     0.014470000000    -0.166307   
N9       N      0.270620000000     0.869340000000     0.995230000000    -0.0315105  
N10      N      0.148020000000     0.304900000000     0.978010000000    -0.170963   
N11      N      0.325640000000     0.120310000000     0.942580000000    -0.167024   
N12      N      0.226700000000     0.304370000000     0.025960000000    -0.0314142  
N13      N      0.681950000000     0.924680000000     0.846620000000    -0.170973   
N14      N      0.851470000000     0.966750000000     0.664290000000    -0.169691   
N15      N      0.744150000000     0.868790000000     0.885190000000    -0.0358052  
N16      N      0.339920000000     0.923570000000     0.837230000000    -0.172393   
N17      N      0.169780000000     0.003460000000     0.647020000000    -0.16797    
N18      N      0.271100000000     0.920940000000     0.900250000000    -0.0199612  
N19      N      0.151490000000     0.009440000000     0.313790000000    -0.171624   
N20      N      0.328630000000     0.019180000000     0.134450000000    -0.16697    
N21      N      0.233530000000     0.965690000000     0.318710000000    -0.0318013  
N22      N      0.670510000000     0.044660000000     0.134100000000    -0.170467   
N23      N      0.834780000000     0.971080000000     0.331930000000    -0.167033   
N24      N      0.613040000000     0.089730000000     0.194760000000    -0.0334447  
N25      N      0.995090000000     0.323720000000     0.830270000000    -0.176886   
N26      N      0.997840000000     0.138390000000     0.654350000000    -0.17067    
N27      N      0.902590000000     0.333690000000     0.836790000000    -0.0335479  
N28      N      0.039370000000     0.650610000000     0.831140000000    -0.170204   
N29      N      0.017150000000     0.827670000000     0.654210000000    -0.169374   
N30      N      0.101820000000     0.710920000000     0.857880000000    -0.0322381  
N31      N      0.015830000000     0.646340000000     0.141850000000    -0.169856   
N32      N      0.001870000000     0.831630000000     0.323890000000    -0.169113   
N33      N      0.955170000000     0.713270000000     0.124270000000    -0.0335039  
N34      N      0.984050000000     0.142310000000     0.325560000000    -0.172553   
N35      N      0.955530000000     0.321310000000     0.134890000000    -0.171235   
N36      N      0.916560000000     0.121670000000     0.267970000000    -0.0342014  
O1       O      0.856500000000     0.976250000000     0.413550000000    -0.360777   
O2       O      0.918260000000     0.978520000000     0.353290000000    -0.347051   
O3       O      0.991840000000     0.120300000000     0.573050000000    -0.36269    
O4       O      0.007210000000     0.058970000000     0.629720000000    -0.351075   
O5       O      0.991480000000     0.122480000000     0.407210000000    -0.367117   
O6       O      0.985370000000     0.061620000000     0.350450000000    -0.343111   
O7       O      0.866010000000     0.969250000000     0.580870000000    -0.35604    
O8       O      0.932140000000     0.978230000000     0.633920000000    -0.35715    
O9       O      0.834330000000     0.042720000000     0.502020000000    -0.342902   
O10      O      0.828370000000     0.918210000000     0.497890000000    -0.513655   
O11      O      0.917620000000     0.135380000000     0.491190000000    -0.512781   
O12      O      0.044330000000     0.161500000000     0.488780000000    -0.327547   
O13      O      0.937400000000     0.037120000000     0.443590000000    -0.466573   
O14      O      0.942620000000     0.035430000000     0.542030000000    -0.611134   
O15      O      0.012890000000     0.847560000000     0.572210000000    -0.361321   
O16      O      0.014650000000     0.908340000000     0.629430000000    -0.355396   
O17      O      0.139380000000     0.999180000000     0.397450000000    -0.353899   
O18      O      0.071890000000     0.995780000000     0.345130000000    -0.359462   
O19      O      0.148200000000     0.998520000000     0.565220000000    -0.350438   
O20      O      0.087000000000     0.990910000000     0.625530000000    -0.351924   
O21      O      0.004040000000     0.849220000000     0.406070000000    -0.362254   
O22      O      0.004960000000     0.911560000000     0.348750000000    -0.35078    
O23      O      0.087150000000     0.835140000000     0.484050000000    -0.513997   
O24      O      0.962060000000     0.807120000000     0.492290000000    -0.327102   
O25      O      0.169810000000     0.926100000000     0.481500000000    -0.339221   
O26      O      0.177340000000     0.050620000000     0.478050000000    -0.512291   
O27      O      0.067130000000     0.932890000000     0.534890000000    -0.610375   
O28      O      0.062460000000     0.933930000000     0.436480000000    -0.467132   
O29      O      0.951550000000     0.924180000000     0.545190000000    -0.473901   
O30      O      0.052990000000     0.045440000000     0.434690000000    -0.623814   
O31      O      0.946230000000     0.925360000000     0.440710000000    -0.626112   
O32      O      0.058840000000     0.044970000000     0.538740000000    -0.477149   
O33      O      0.970370000000     0.402600000000     0.118480000000    -0.364168   
O34      O      0.980200000000     0.345820000000     0.057760000000    -0.358073   
O35      O      0.874290000000     0.582780000000     0.961700000000    -0.358735   
O36      O      0.941890000000     0.633070000000     0.974050000000    -0.346227   
O37      O      0.857460000000     0.416690000000     0.963090000000    -0.3553     
O38      O      0.913990000000     0.355400000000     0.983880000000    -0.349885   
O39      O      0.007720000000     0.565260000000     0.122260000000    -0.352427   
O40      O      0.008960000000     0.623730000000     0.061060000000    -0.341092   
O41      O      0.916110000000     0.500750000000     0.135490000000    -0.337276   
O42      O      0.037080000000     0.471680000000     0.163220000000    -0.513855   
O43      O      0.835650000000     0.502730000000     0.034030000000    -0.515378   
O44      O      0.833440000000     0.503620000000     0.909620000000    -0.321177   
O45      O      0.935380000000     0.442950000000     0.033290000000    -0.470108   
O46      O      0.944990000000     0.539330000000     0.033840000000    -0.610198   
O47      O      0.152330000000     0.553290000000     0.009390000000    -0.356603   
O48      O      0.094610000000     0.615730000000     0.997180000000    -0.347893   
O49      O      0.016250000000     0.401990000000     0.849030000000    -0.355947   
O50      O      0.990000000000     0.348010000000     0.909550000000    -0.353156   
O51      O      0.027100000000     0.569060000000     0.848720000000    -0.355695   
O52      O      0.030230000000     0.624410000000     0.911250000000    -0.344515   
O53      O      0.137290000000     0.387600000000     0.991960000000    -0.347287   
O54      O      0.068000000000     0.338670000000     0.982930000000    -0.35942    
O55      O      0.177270000000     0.474370000000     0.937990000000    -0.512259   
O56      O      0.172990000000     0.460970000000     0.062470000000    -0.3193     
O57      O      0.097350000000     0.481560000000     0.836210000000    -0.338624   
O58      O      0.972730000000     0.489560000000     0.806010000000    -0.512777   
O59      O      0.074140000000     0.527920000000     0.936770000000    -0.610605   
O60      O      0.064790000000     0.430820000000     0.935960000000    -0.472716   
O61      O      0.060290000000     0.530870000000     0.048130000000    -0.475083   
O62      O      0.949730000000     0.440440000000     0.921410000000    -0.628762   
O63      O      0.050200000000     0.426630000000     0.047710000000    -0.62446    
O64      O      0.959910000000     0.543800000000     0.921650000000    -0.474286   
O65      O      0.583830000000     0.110740000000     0.938230000000    -0.368052   
O66      O      0.646760000000     0.056350000000     0.960540000000    -0.35404    
O67      O      0.414190000000     0.018050000000     0.117140000000    -0.35683    
O68      O      0.357620000000     0.995470000000     0.058490000000    -0.344578   
O69      O      0.586000000000     0.030050000000     0.117320000000    -0.330865   
O70      O      0.647110000000     0.014120000000     0.059290000000    -0.353252   
O71      O      0.411640000000     0.104000000000     0.940610000000    -0.35424    
O72      O      0.356070000000     0.044450000000     0.965700000000    -0.348908   
O73      O      0.493960000000     0.151260000000     0.995350000000    -0.343726   
O74      O      0.497890000000     0.121480000000     0.875000000000    -0.513846   
O75      O      0.492520000000     0.093440000000     0.115870000000    -0.507796   
O76      O      0.502690000000     0.981080000000     0.169420000000    -0.317663   
O77      O      0.550900000000     0.052480000000     0.021270000000    -0.467739   
O78      O      0.450120000000     0.047090000000     0.020610000000    -0.613279   
O79      O      0.423940000000     0.934320000000     0.856670000000    -0.35951    
O80      O      0.362400000000     0.949220000000     0.914890000000    -0.325553   
O81      O      0.598670000000     0.855560000000     0.037950000000    -0.344264   
O82      O      0.654820000000     0.915740000000     0.017330000000    -0.347699   
O83      O      0.426570000000     0.845980000000     0.036480000000    -0.355144   
O84      O      0.365470000000     0.901180000000     0.013670000000    -0.326737   
O85      O      0.596290000000     0.935460000000     0.860210000000    -0.361272   
O86      O      0.652700000000     0.954080000000     0.920540000000    -0.348867   
O87      O      0.511920000000     0.862670000000     0.864090000000    -0.514281   
O88      O      0.511400000000     0.974090000000     0.805680000000    -0.330741   
O89      O      0.515890000000     0.808360000000     0.977490000000    -0.330547   
O90      O      0.512440000000     0.834840000000     0.099660000000    -0.510868   
O91      O      0.459780000000     0.906030000000     0.954710000000    -0.613723   
O92      O      0.561140000000     0.910770000000     0.955350000000    -0.465313   
O93      O      0.449630000000     0.011030000000     0.914370000000    -0.478154   
O94      O      0.560020000000     0.947270000000     0.061110000000    -0.626853   
O95      O      0.558570000000     0.015480000000     0.915650000000    -0.62301    
O96      O      0.451450000000     0.942070000000     0.060610000000    -0.475248   
O97      O      0.629270000000     0.740700000000     0.114430000000    -0.119022   
O98      O      0.603660000000     0.758220000000     0.041450000000    -0.107409   
O99      O      0.771260000000     0.352760000000     0.852100000000    -0.108093   
O100     O      0.835870000000     0.304880000000     0.873070000000    -0.076281   
O101     O      0.270440000000     0.912370000000     0.018190000000    -0.0914611  
O102     O      0.301250000000     0.871790000000     0.954430000000    -0.0591085  
O103     O      0.214870000000     0.343740000000     0.052680000000    -0.100176   
O104     O      0.207110000000     0.265530000000     0.049350000000    -0.112995   
O105     O      0.710890000000     0.858970000000     0.921430000000    -0.106825   
O106     O      0.736640000000     0.836260000000     0.849900000000    -0.1185     
O107     O      0.269810000000     0.873590000000     0.916910000000    -0.074778   
O108     O      0.224640000000     0.940000000000     0.908070000000    -0.110249   
O109     O      0.222570000000     0.940620000000     0.359930000000    -0.10866    
O110     O      0.216830000000     0.939600000000     0.281130000000    -0.110327   
O111     O      0.596180000000     0.116970000000     0.157040000000    -0.106727   
O112     O      0.579020000000     0.055180000000     0.205690000000    -0.0999604  
O113     O      0.856970000000     0.311930000000     0.828890000000    -0.0689279  
O114     O      0.905790000000     0.371750000000     0.805490000000    -0.117974   
O115     O      0.114350000000     0.688700000000     0.900140000000    -0.10712    
O116     O      0.131530000000     0.691730000000     0.822750000000    -0.112631   
O117     O      0.936240000000     0.693980000000     0.083620000000    -0.11021    
O118     O      0.928660000000     0.695240000000     0.162470000000    -0.111445   
O119     O      0.902030000000     0.080440000000     0.290780000000    -0.103483   
O120     O      0.890640000000     0.158630000000     0.288590000000    -0.112706   
Zr1      Zr     0.897080000000     0.976190000000     0.495410000000     1.29221    
Zr2      Zr     0.994930000000     0.086350000000     0.489940000000     1.30061    
Zr3      Zr     0.009530000000     0.883420000000     0.489110000000     1.29489    
Zr4      Zr     0.107860000000     0.993600000000     0.483470000000     1.29147    
Zr5      Zr     0.997630000000     0.985910000000     0.397290000000     1.27451    
Zr6      Zr     0.007390000000     0.984040000000     0.581740000000     1.26504    
Zr7      Zr     0.992970000000     0.484480000000     0.086610000000     1.293      
Zr8      Zr     0.900580000000     0.496420000000     0.970560000000     1.29692    
Zr9      Zr     0.109360000000     0.474090000000     0.998900000000     1.29355    
Zr10     Zr     0.017510000000     0.485810000000     0.883040000000     1.29892    
Zr11     Zr     0.995650000000     0.394430000000     0.984410000000     1.27958    
Zr12     Zr     0.013570000000     0.576640000000     0.985450000000     1.27147    
Zr13     Zr     0.499830000000     0.074190000000     0.950720000000     1.29148    
Zr14     Zr     0.501470000000     0.011250000000     0.084530000000     1.30698    
Zr15     Zr     0.508890000000     0.946670000000     0.891480000000     1.29505    
Zr16     Zr     0.510530000000     0.883740000000     0.024940000000     1.30526    
Zr17     Zr     0.600990000000     0.983590000000     0.988820000000     1.26684    
Zr18     Zr     0.409760000000     0.974600000000     0.987290000000     1.27573    


