data_structure

_audit_creation_method RASPA-1.0
_audit_creation_date 2023-6-5
_audit_author_name 'Poobodin Mano'

_cell_length_a    26.5933
_cell_length_b    27.3721
_cell_length_c    27.0108
_cell_angle_alpha 89.2565
_cell_angle_beta  89.2563
_cell_angle_gamma 89.2563
_cell_volume      19656.6

_symmetry_cell_setting          triclinic
_symmetry_space_group_name_Hall 'P 1'
_symmetry_space_group_name_H-M  'P 1'
_symmetry_Int_Tables_number     1

_symmetry_equiv_pos_as_xyz 'x,y,z'

loop_
_atom_site_label
_atom_site_type_symbol
_atom_site_fract_x
_atom_site_fract_y
_atom_site_fract_z
_atom_site_charge
C1       C      0.866110000000     0.999840000000     0.370390000000     0.381707   
C2       C      0.006270000000     0.093810000000     0.621370000000     0.38034    
C3       C      0.993430000000     0.101510000000     0.364600000000     0.381599   
C4       C      0.879910000000     0.970190000000     0.627820000000     0.380994   
C5       C      0.998170000000     0.853580000000     0.617550000000     0.381601   
C6       C      0.111490000000     0.970090000000     0.353220000000     0.378735   
C7       C      0.127550000000     0.967950000000     0.610800000000     0.379474   
C8       C      0.977430000000     0.860590000000     0.360670000000     0.374657   
C9       C      0.004640000000     0.354590000000     0.122530000000     0.380743   
C10      C      0.873020000000     0.607410000000     0.002380000000     0.383784   
C11      C      0.870270000000     0.352890000000     0.013400000000     0.374688   
C12      C      0.015940000000     0.609410000000     0.109310000000     0.382694   
C13      C      0.118730000000     0.603010000000     0.976530000000     0.37821    
C14      C      0.998030000000     0.346650000000     0.880880000000     0.379938   
C15      C      0.978660000000     0.600820000000     0.869600000000     0.384329   
C16      C      0.117380000000     0.347890000000     0.991500000000     0.37674    
C17      C      0.620130000000     0.107720000000     0.016530000000     0.37851    
C18      C      0.358590000000     0.958160000000     0.094670000000     0.379117   
C19      C      0.619490000000     0.965030000000     0.111160000000     0.374708   
C20      C      0.361290000000     0.101840000000     0.976940000000     0.383594   
C21      C      0.374280000000     0.003230000000     0.854660000000     0.377558   
C22      C      0.634800000000     0.873980000000     0.963930000000     0.383909   
C23      C      0.373720000000     0.862150000000     0.959920000000     0.378497   
C24      C      0.635980000000     0.009690000000     0.870550000000     0.37659    
C25      C      0.724990000000     0.852060000000     0.974320000000     0.00899152 
C26      C      0.785400000000     0.635780000000     0.015740000000     0.0139333  
C27      C      0.855740000000     0.696080000000     0.996780000000     0.0544077  
C28      C      0.750920000000     0.672530000000     0.989450000000    -0.105299   
C29      C      0.738000000000     0.813620000000     0.013960000000    -0.0972342  
C30      C      0.817960000000     0.733900000000     0.017430000000    -0.115037   
C31      C      0.730290000000     0.762240000000     0.994210000000     0.0119976  
C32      C      0.764710000000     0.725030000000     0.000080000000     0.0259355  
C33      C      0.667210000000     0.794410000000     0.933390000000     0.010931   
C34      C      0.679060000000     0.753990000000     0.971150000000    -0.0986646  
C35      C      0.781030000000     0.328880000000     0.025280000000     0.00705313 
C36      C      0.709420000000     0.126490000000     0.023160000000     0.0112308  
C37      C      0.640470000000     0.193260000000     0.038920000000     0.0540807  
C38      C      0.746670000000     0.160310000000     0.047510000000    -0.105046   
C39      C      0.748010000000     0.295930000000     0.994240000000    -0.0997255  
C40      C      0.682920000000     0.226040000000     0.057520000000    -0.115914   
C41      C      0.761850000000     0.243120000000     0.005450000000     0.0161942  
C42      C      0.733060000000     0.212470000000     0.034570000000     0.0260791  
C43      C      0.850680000000     0.264430000000     0.020690000000     0.00801361 
C44      C      0.815930000000     0.232400000000     0.990250000000    -0.100347   
C45      C      0.351700000000     0.774530000000     0.959290000000     0.0114587  
C46      C      0.137080000000     0.690930000000     0.978740000000     0.0123082  
C47      C      0.205610000000     0.628520000000     0.955940000000     0.0551785  
C48      C      0.171840000000     0.728240000000     0.953750000000    -0.104006   
C49      C      0.312180000000     0.749270000000     0.991550000000    -0.100751   
C50      C      0.242470000000     0.666080000000     0.976170000000    -0.113808   
C51      C      0.260400000000     0.756420000000     0.969240000000     0.0156562  
C52      C      0.226630000000     0.718970000000     0.966460000000     0.0243922  
C53      C      0.288650000000     0.838450000000     0.932670000000     0.00859312 
C54      C      0.246010000000     0.809520000000     0.958060000000    -0.0993527  
C55      C      0.205910000000     0.319600000000     0.983380000000     0.00642418 
C56      C      0.270640000000     0.117590000000     0.976410000000     0.0103663  
C57      C      0.335100000000     0.186570000000     0.954880000000     0.054941   
C58      C      0.229290000000     0.152170000000     0.957660000000    -0.104929   
C59      C      0.238900000000     0.284180000000     0.013360000000    -0.0989667  
C60      C      0.289780000000     0.217630000000     0.938290000000    -0.116646   
C61      C      0.221950000000     0.232880000000     0.003390000000     0.0175429  
C62      C      0.243860000000     0.203950000000     0.967950000000     0.0273747  
C63      C      0.133810000000     0.258640000000     0.993660000000     0.00695333 
C64      C      0.169320000000     0.225120000000     0.023190000000    -0.099645   
C65      C      0.666330000000     0.015110000000     0.784240000000     0.00916486 
C66      C      0.868740000000     0.969700000000     0.717780000000     0.0106672  
C67      C      0.792540000000     0.958920000000     0.658400000000     0.0547152  
C68      C      0.832610000000     0.958860000000     0.760910000000    -0.105228   
C69      C      0.708680000000     0.038710000000     0.754060000000    -0.100897   
C70      C      0.759890000000     0.951840000000     0.705240000000    -0.116115   
C71      C      0.757950000000     0.017220000000     0.771060000000     0.0189095  
C72      C      0.781260000000     0.978500000000     0.748300000000     0.0271365  
C73      C      0.727980000000     0.008390000000     0.857420000000     0.00912738 
C74      C      0.768170000000     0.031620000000     0.823640000000    -0.101245   
C75      C      0.284810000000     0.998230000000     0.832110000000     0.00747696 
C76      C      0.216600000000     0.977510000000     0.629120000000     0.0102048  
C77      C      0.151230000000     0.958530000000     0.699270000000     0.0536271  
C78      C      0.257860000000     0.964320000000     0.665930000000    -0.104501   
C79      C      0.248530000000     0.025440000000     0.797630000000    -0.099701   
C80      C      0.196260000000     0.949820000000     0.733790000000    -0.115386   
C81      C      0.263630000000     0.014200000000     0.744930000000     0.0186978  
C82      C      0.241130000000     0.979100000000     0.717130000000     0.0259357  
C83      C      0.354040000000     0.010170000000     0.765630000000     0.00819275 
C84      C      0.314510000000     0.035670000000     0.732990000000    -0.100317   
C85      C      0.126250000000     0.971750000000     0.262170000000     0.00718066 
C86      C      0.329930000000     0.937110000000     0.178800000000     0.0146402  
C87      C      0.267030000000     0.945470000000     0.107420000000     0.0568082  
C88      C      0.283750000000     0.920210000000     0.207890000000    -0.106495   
C89      C      0.163340000000     0.001240000000     0.229890000000    -0.0981935  
C90      C      0.227000000000     0.964250000000     0.145110000000    -0.115712   
C91      C      0.215680000000     0.979730000000     0.236160000000     0.01387    
C92      C      0.240870000000     0.955840000000     0.198940000000     0.0271552  
C93      C      0.197040000000     0.950140000000     0.321180000000     0.00868839 
C94      C      0.232700000000     0.980860000000     0.289320000000    -0.099826   
C95      C      0.709060000000     0.952480000000     0.133690000000     0.0112018  
C96      C      0.776160000000     0.012950000000     0.350330000000     0.0108785  
C97      C      0.838990000000     0.031730000000     0.285210000000     0.0497198  
C98      C      0.745280000000     0.982100000000     0.314870000000    -0.101793   
C99      C      0.740030000000     0.983270000000     0.168610000000    -0.0994189  
C100     C      0.814130000000     0.998960000000     0.247440000000    -0.112916   
C101     C      0.725590000000     0.977140000000     0.223340000000     0.0149679  
C102     C      0.759020000000     0.988840000000     0.259960000000     0.0192093  
C103     C      0.641970000000     0.939580000000     0.196950000000     0.00912111 
C104     C      0.670030000000     0.968860000000     0.235660000000    -0.0988652  
C105     C      0.999950000000     0.258020000000     0.862540000000     0.00978056 
C106     C      0.998540000000     0.179730000000     0.646230000000     0.0121568  
C107     C      0.014980000000     0.112430000000     0.710570000000     0.0555307  
C108     C      0.022330000000     0.213740000000     0.683320000000    -0.103164   
C109     C      0.974660000000     0.230410000000     0.820780000000    -0.0995231  
C110     C      0.992410000000     0.149330000000     0.747880000000    -0.115028   
C111     C      0.001500000000     0.238380000000     0.771120000000     0.0144917  
C112     C      0.005530000000     0.202320000000     0.736160000000     0.0236892  
C113     C      0.035400000000     0.318790000000     0.801950000000     0.0101719  
C114     C      0.013440000000     0.291470000000     0.758430000000    -0.09843    
C115     C      0.991160000000     0.830730000000     0.706660000000     0.0104098  
C116     C      0.949610000000     0.624660000000     0.786360000000     0.0151377  
C117     C      0.988030000000     0.687160000000     0.843780000000     0.057579   
C118     C      0.968450000000     0.657380000000     0.744050000000    -0.105061   
C119     C      0.948490000000     0.799540000000     0.727940000000    -0.0995829  
C120     C      0.960930000000     0.724800000000     0.810350000000    -0.115104   
C121     C      0.960170000000     0.745830000000     0.718850000000     0.0155177  
C122     C      0.963120000000     0.711260000000     0.755890000000     0.0257035  
C123     C      0.010360000000     0.766830000000     0.642840000000     0.0118579  
C124     C      0.969220000000     0.734050000000     0.664470000000    -0.0999364  
C125     C      0.961020000000     0.843360000000     0.272100000000     0.00994344 
C126     C      0.038420000000     0.636980000000     0.192970000000     0.010926   
C127     C      0.033820000000     0.699560000000     0.126540000000     0.0518811  
C128     C      0.004810000000     0.666850000000     0.227880000000    -0.101366   
C129     C      0.990410000000     0.810430000000     0.235960000000    -0.0986617  
C130     C      0.001320000000     0.733760000000     0.158860000000    -0.112162   
C131     C      0.990370000000     0.755840000000     0.249250000000     0.0143215  
C132     C      0.002020000000     0.721100000000     0.214100000000     0.0201927  
C133     C      0.955880000000     0.776740000000     0.335050000000     0.00934521 
C134     C      0.988510000000     0.742120000000     0.304200000000    -0.0984019  
C135     C      0.013410000000     0.266590000000     0.143100000000     0.00901373 
C136     C      0.991290000000     0.188710000000     0.342800000000     0.0152657  
C137     C      0.984600000000     0.122980000000     0.275980000000     0.0535398  
C138     C      0.975800000000     0.223120000000     0.300840000000    -0.106998   
C139     C      0.050880000000     0.239490000000     0.176500000000    -0.0996564  
C140     C      0.008850000000     0.159470000000     0.239000000000    -0.114013   
C141     C      0.033900000000     0.247160000000     0.229500000000     0.0147129  
C142     C      0.007720000000     0.212290000000     0.255510000000     0.0271412  
C143     C      0.999490000000     0.329570000000     0.211040000000     0.00728126 
C144     C      0.036220000000     0.300420000000     0.243400000000    -0.098746   
H1       H      0.925400000000     0.053360000000     0.567550000000     0.207607   
H2       H      0.073060000000     0.050920000000     0.412560000000     0.2015     
H3       H      0.073930000000     0.896430000000     0.554290000000     0.208767   
H4       H      0.909170000000     0.908550000000     0.421130000000     0.202831   
H5       H      0.093770000000     0.129420000000     0.482380000000     0.123561   
H6       H      0.168760000000     0.059230000000     0.468910000000     0.181838   
H7       H      0.144700000000     0.882890000000     0.454460000000     0.146462   
H8       H      0.074960000000     0.805680000000     0.510260000000     0.195725   
H9       H      0.898550000000     0.823390000000     0.493210000000     0.124334   
H10      H      0.821950000000     0.894990000000     0.498460000000     0.184131   
H11      H      0.844940000000     0.074320000000     0.484930000000     0.144652   
H12      H      0.923610000000     0.150510000000     0.527920000000     0.196221   
H13      H      0.071080000000     0.809720000000     0.448570000000     0.199856   
H14      H      0.785580000000     0.944800000000     0.490610000000     0.198711   
H15      H      0.915700000000     0.145980000000     0.466850000000     0.199606   
H16      H      0.206020000000     0.010780000000     0.480620000000     0.200128   
H17      H      0.926420000000     0.551540000000     0.076390000000     0.208703   
H18      H      0.909540000000     0.403410000000     0.930300000000     0.199664   
H19      H      0.064470000000     0.542990000000     0.908070000000     0.205928   
H20      H      0.079640000000     0.406210000000     0.067600000000     0.202602   
H21      H      0.823760000000     0.475160000000     0.924580000000     0.124671   
H22      H      0.885460000000     0.454870000000     0.842750000000     0.180662   
H23      H      0.071930000000     0.461570000000     0.835530000000     0.142001   
H24      H      0.161390000000     0.500020000000     0.895200000000     0.195295   
H25      H      0.165920000000     0.472980000000     0.067500000000     0.123863   
H26      H      0.102570000000     0.472770000000     0.155450000000     0.182664   
H27      H      0.922010000000     0.459140000000     0.159190000000     0.145959   
H28      H      0.830130000000     0.513290000000     0.093800000000     0.196875   
H29      H      0.154450000000     0.439370000000     0.895450000000     0.199083   
H30      H      0.056610000000     0.483870000000     0.196900000000     0.199085   
H31      H      0.835790000000     0.452580000000     0.099740000000     0.200024   
H32      H      0.926540000000     0.471180000000     0.798240000000     0.200714   
H33      H      0.415380000000     0.045440000000     0.064540000000     0.206199   
H34      H      0.571070000000     0.900150000000     0.050830000000     0.202331   
H35      H      0.435430000000     0.922140000000     0.891850000000     0.207813   
H36      H      0.572910000000     0.076290000000     0.923660000000     0.201851   
H37      H      0.493380000000     0.873390000000     0.129300000000     0.124091   
H38      H      0.505670000000     0.808610000000     0.048890000000     0.181891   
H39      H      0.530940000000     0.854730000000     0.872060000000     0.144709   
H40      H      0.480990000000     0.934860000000     0.799970000000     0.195051   
H41      H      0.499200000000     0.100110000000     0.839090000000     0.127036   
H42      H      0.506600000000     0.168330000000     0.923290000000     0.183274   
H43      H      0.501490000000     0.119070000000     0.095720000000     0.14698    
H44      H      0.449780000000     0.038490000000     0.159450000000     0.195841   
H45      H      0.543450000000     0.933090000000     0.806490000000     0.198895   
H46      H      0.491340000000     0.194570000000     0.977180000000     0.198608   
H47      H      0.512480000000     0.041870000000     0.161730000000     0.199718   
H48      H      0.514820000000     0.779540000000     0.995300000000     0.198927   
H49      H      0.776050000000     0.820900000000     0.027790000000     0.0408018  
H50      H      0.779160000000     0.638380000000     0.056430000000     0.025343   
H51      H      0.693810000000     0.790510000000     0.901490000000     0.0275264  
H52      H      0.676640000000     0.719060000000     0.951050000000     0.0424984  
H53      H      0.712090000000     0.664820000000     0.002850000000     0.0444464  
H54      H      0.818210000000     0.732240000000     0.058560000000     0.05083    
H55      H      0.728370000000     0.889040000000     0.990380000000     0.0368943  
H56      H      0.774250000000     0.598470000000     0.004810000000     0.0389964  
H57      H      0.649780000000     0.753940000000     0.000890000000     0.0493471  
H58      H      0.831890000000     0.770210000000     0.005350000000     0.0478444  
H59      H      0.628670000000     0.789500000000     0.918970000000     0.0346394  
H60      H      0.892170000000     0.701530000000     0.015640000000     0.0299121  
H61      H      0.712120000000     0.818730000000     0.046190000000     0.0486858  
H62      H      0.753080000000     0.666480000000     0.948860000000     0.055076   
H63      H      0.752790000000     0.848930000000     0.943340000000     0.0279798  
H64      H      0.903190000000     0.741520000000     0.925810000000     0.0286075  
H65      H      0.707860000000     0.305640000000     0.999130000000     0.0426856  
H66      H      0.718500000000     0.124750000000     0.982880000000     0.0297969  
H67      H      0.848820000000     0.251980000000     0.060030000000     0.0301031  
H68      H      0.828130000000     0.193850000000     0.993200000000     0.0413495  
H69      H      0.785160000000     0.148520000000     0.037350000000     0.0429984  
H70      H      0.671500000000     0.264720000000     0.053070000000     0.0481206  
H71      H      0.771870000000     0.367490000000     0.015470000000     0.0393607  
H72      H      0.715950000000     0.089070000000     0.038580000000     0.0381779  
H73      H      0.821050000000     0.242160000000     0.950410000000     0.0483857  
H74      H      0.686870000000     0.221080000000     0.098290000000     0.0542114  
H75      H      0.889920000000     0.258250000000     0.007320000000     0.038429   
H76      H      0.626460000000     0.209450000000     0.003630000000     0.0216113  
H77      H      0.756080000000     0.303770000000     0.954430000000     0.04933    
H78      H      0.744090000000     0.154960000000     0.088370000000     0.0499006  
H79      H      0.770980000000     0.323400000000     0.065050000000     0.0287305  
H80      H      0.547650000000     0.216190000000     0.061220000000     0.0341469  
H81      H      0.324160000000     0.710750000000     0.996880000000     0.0429492  
H82      H      0.136150000000     0.697350000000     0.019320000000     0.0329007  
H83      H      0.289560000000     0.828820000000     0.892780000000     0.0279773  
H84      H      0.213560000000     0.812660000000     0.932790000000     0.0426938  
H85      H      0.158430000000     0.764430000000     0.966920000000     0.0431504  
H86      H      0.245660000000     0.660350000000     0.016840000000     0.0542438  
H87      H      0.388940000000     0.768530000000     0.976730000000     0.036669   
H88      H      0.098320000000     0.697930000000     0.965130000000     0.0376799  
H89      H      0.235230000000     0.827360000000     0.993380000000     0.049908   
H90      H      0.279750000000     0.658130000000     0.958830000000     0.0507681  
H91      H      0.279220000000     0.878070000000     0.934540000000     0.0379148  
H92      H      0.217680000000     0.592060000000     0.970410000000     0.0312762  
H93      H      0.311800000000     0.765890000000     0.028900000000     0.0526691  
H94      H      0.167440000000     0.727160000000     0.912930000000     0.0533445  
H95      H      0.352930000000     0.757120000000     0.922290000000     0.030686   
H96      H      0.173810000000     0.596310000000     0.872100000000     0.0307643  
H97      H      0.279420000000     0.290340000000     0.006220000000     0.0436902  
H98      H      0.265220000000     0.112090000000     0.017010000000     0.0303506  
H99      H      0.131490000000     0.244900000000     0.955180000000     0.0310252  
H100     H      0.156100000000     0.187090000000     0.022610000000     0.0413507  
H101     H      0.192870000000     0.140710000000     0.973640000000     0.0427047  
H102     H      0.298940000000     0.256920000000     0.938640000000     0.0479095  
H103     H      0.216120000000     0.357410000000     0.993420000000     0.039056   
H104     H      0.264930000000     0.081330000000     0.959340000000     0.0382811  
H105     H      0.167340000000     0.235660000000     0.062820000000     0.0477541  
H106     H      0.281770000000     0.210400000000     0.898690000000     0.0546782  
H107     H      0.095650000000     0.255590000000     0.010620000000     0.0390266  
H108     H      0.350990000000     0.203320000000     0.988460000000     0.0247404  
H109     H      0.233370000000     0.292130000000     0.053370000000     0.049355   
H110     H      0.225610000000     0.147520000000     0.917010000000     0.0490664  
H111     H      0.214900000000     0.315240000000     0.943340000000     0.0288736  
H112     H      0.414100000000     0.228010000000     0.916240000000     0.0270666  
H113     H      0.702620000000     0.035530000000     0.713710000000     0.0447288  
H114     H      0.882060000000     0.007880000000     0.721270000000     0.0324924  
H115     H      0.736500000000     0.968640000000     0.861420000000     0.0326982  
H116     H      0.805940000000     0.021730000000     0.837290000000     0.0417075  
H117     H      0.848860000000     0.973540000000     0.794930000000     0.0425002  
H118     H      0.720170000000     0.961070000000     0.697160000000     0.0480542  
H119     H      0.630840000000     0.035170000000     0.775490000000     0.0386893  
H120     H      0.902580000000     0.945720000000     0.722080000000     0.0363117  
H121     H      0.765300000000     0.072050000000     0.826740000000     0.0476882  
H122     H      0.759120000000     0.912420000000     0.715930000000     0.0539709  
H123     H      0.731250000000     0.024460000000     0.894850000000     0.0365487  
H124     H      0.779140000000     0.992660000000     0.639000000000     0.026583   
H125     H      0.707960000000     0.078690000000     0.761040000000     0.0496784  
H126     H      0.830700000000     0.918620000000     0.766830000000     0.0484728  
H127     H      0.661650000000     0.976860000000     0.771870000000     0.0280101  
H128     H      0.747160000000     0.922730000000     0.582770000000     0.0299878  
H129     H      0.208950000000     0.017650000000     0.807440000000     0.042342   
H130     H      0.217520000000     0.017580000000     0.621700000000     0.0325194  
H131     H      0.360600000000     0.972500000000     0.751800000000     0.0265952  
H132     H      0.326170000000     0.034400000000     0.693670000000     0.0434622  
H133     H      0.293470000000     0.980300000000     0.652630000000     0.0435324  
H134     H      0.183950000000     0.955570000000     0.772480000000     0.0473865  
H135     H      0.275990000000     0.009800000000     0.870610000000     0.0399801  
H136     H      0.226390000000     0.959520000000     0.593500000000     0.0365108  
H137     H      0.313710000000     0.075250000000     0.741850000000     0.0513051  
H138     H      0.207910000000     0.910610000000     0.732880000000     0.0542505  
H139     H      0.390020000000     0.030020000000     0.760830000000     0.0396524  
H140     H      0.131440000000     0.992460000000     0.711300000000     0.0268384  
H141     H      0.252100000000     0.065340000000     0.803910000000     0.0507094  
H142     H      0.264400000000     0.924100000000     0.665460000000     0.0504954  
H143     H      0.277590000000     0.958350000000     0.830290000000     0.029987   
H144     H      0.063050000000     0.926570000000     0.725980000000     0.0389428  
H145     H      0.150000000000     0.001670000000     0.191190000000     0.0411507  
H146     H      0.345360000000     0.970130000000     0.196460000000     0.0300218  
H147     H      0.201180000000     0.911260000000     0.310150000000     0.0286563  
H148     H      0.272320000000     0.969800000000     0.295210000000     0.0424574  
H149     H      0.293770000000     0.914160000000     0.247040000000     0.0452368  
H150     H      0.222760000000     0.004320000000     0.138700000000     0.0505226  
H151     H      0.088830000000     0.990220000000     0.260320000000     0.0379345  
H152     H      0.359510000000     0.908080000000     0.181310000000     0.0376867  
H153     H      0.230260000000     0.019240000000     0.302260000000     0.0498183  
H154     H      0.190020000000     0.947470000000     0.137790000000     0.0498452  
H155     H      0.208920000000     0.952450000000     0.360350000000     0.0358447  
H156     H      0.262370000000     0.967820000000     0.073070000000     0.0293811  
H157     H      0.162980000000     0.039820000000     0.242290000000     0.047709   
H158     H      0.272580000000     0.883680000000     0.194830000000     0.0551595  
H159     H      0.122420000000     0.934840000000     0.245970000000     0.0308204  
H160     H      0.291060000000     0.868200000000     0.057480000000     0.0462336  
H161     H      0.779610000000     0.971810000000     0.161500000000     0.0413518  
H162     H      0.761670000000     0.051260000000     0.348610000000     0.0274781  
H163     H      0.652890000000     0.900390000000     0.201340000000     0.0265659  
H164     H      0.665320000000     0.948010000000     0.270870000000     0.0421281  
H165     H      0.705500000000     0.992530000000     0.322410000000     0.0422218  
H166     H      0.817990000000     0.018590000000     0.211410000000     0.0462832  
H167     H      0.717560000000     0.964210000000     0.094970000000     0.0372893  
H168     H      0.769100000000     0.999200000000     0.388650000000     0.0321821  
H169     H      0.651210000000     0.005100000000     0.239810000000     0.0501868  
H170     H      0.834840000000     0.963480000000     0.245230000000     0.0557262  
H171     H      0.600980000000     0.942530000000     0.205040000000     0.0386402  
H172     H      0.819860000000     0.068070000000     0.282150000000     0.0220131  
H173     H      0.735650000000     0.022470000000     0.158050000000     0.0514648  
H174     H      0.750450000000     0.942840000000     0.324840000000     0.0481394  
H175     H      0.721680000000     0.913700000000     0.137520000000     0.0247486  
H176     H      0.906480000000     0.065540000000     0.222080000000     0.0102118  
H177     H      0.972470000000     0.191670000000     0.832600000000     0.0409998  
H178     H      0.957280000000     0.186910000000     0.645340000000     0.0253443  
H179     H      0.074820000000     0.305740000000     0.807130000000     0.0279335  
H180     H      0.042020000000     0.294750000000     0.728340000000     0.0430257  
H181     H      0.010520000000     0.251010000000     0.671320000000     0.0439414  
H182     H      0.950780000000     0.146130000000     0.748090000000     0.0504512  
H183     H      0.976420000000     0.254170000000     0.896680000000     0.0353128  
H184     H      0.013770000000     0.189420000000     0.608880000000     0.0394462  
H185     H      0.978360000000     0.310300000000     0.746250000000     0.0490118  
H186     H      0.006110000000     0.138170000000     0.785050000000     0.0477658  
H187     H      0.037240000000     0.358270000000     0.792000000000     0.0367276  
H188     H      0.997000000000     0.076570000000     0.718100000000     0.0274421  
H189     H      0.935310000000     0.244060000000     0.817230000000     0.0486129  
H190     H      0.063990000000     0.210810000000     0.680580000000     0.0551813  
H191     H      0.037250000000     0.240700000000     0.869860000000     0.0303948  
H192     H      0.088120000000     0.066630000000     0.754590000000     0.0293709  
H193     H      0.941320000000     0.809160000000     0.767060000000     0.0417222  
H194     H      0.908140000000     0.629320000000     0.790290000000     0.0297018  
H195     H      0.046640000000     0.756020000000     0.660190000000     0.0273508  
H196     H      0.981460000000     0.695900000000     0.657590000000     0.0438388  
H197     H      0.945420000000     0.648100000000     0.711540000000     0.0443033  
H198     H      0.920800000000     0.727700000000     0.822100000000     0.0533117  
H199     H      0.981190000000     0.869880000000     0.712080000000     0.0376107  
H200     H      0.956840000000     0.586050000000     0.775800000000     0.036296   
H201     H      0.933770000000     0.740600000000     0.643930000000     0.0549003  
H202     H      0.978840000000     0.760500000000     0.816890000000     0.0493611  
H203     H      0.014450000000     0.759930000000     0.602530000000     0.0355935  
H204     H      0.979210000000     0.697130000000     0.882750000000     0.0297666  
H205     H      0.913280000000     0.809430000000     0.708210000000     0.0536288  
H206     H      0.008570000000     0.648570000000     0.735740000000     0.0552755  
H207     H      0.025960000000     0.822470000000     0.727770000000     0.029992   
H208     H      0.078540000000     0.668330000000     0.874480000000     0.0417112  
H209     H      0.973040000000     0.817530000000     0.199410000000     0.0414375  
H210     H      0.078230000000     0.647010000000     0.199360000000     0.0271564  
H211     H      0.915800000000     0.770750000000     0.325710000000     0.0268452  
H212     H      0.971990000000     0.705510000000     0.310490000000     0.0427057  
H213     H      0.021040000000     0.660800000000     0.265120000000     0.0429795  
H214     H      0.016140000000     0.770910000000     0.151610000000     0.0460506  
H215     H      0.972150000000     0.881860000000     0.265070000000     0.0384434  
H216     H      0.034910000000     0.597850000000     0.203700000000     0.0363672  
H217     H      0.027450000000     0.741690000000     0.318680000000     0.0503803  
H218     H      0.961600000000     0.732860000000     0.146550000000     0.054675   
H219     H      0.960330000000     0.766750000000     0.374770000000     0.03906    
H220     H      0.073760000000     0.708130000000     0.134260000000     0.0200046  
H221     H      0.030110000000     0.822600000000     0.234020000000     0.0501583  
H222     H      0.966160000000     0.651870000000     0.227920000000     0.0518093  
H223     H      0.920280000000     0.840910000000     0.263660000000     0.0264008  
H224     H      0.058700000000     0.751330000000     0.048700000000     0.0236394  
H225     H      0.054140000000     0.200760000000     0.165360000000     0.0406538  
H226     H      0.029650000000     0.198090000000     0.355290000000     0.0328804  
H227     H      0.960490000000     0.319380000000     0.221910000000     0.0283864  
H228     H      0.029930000000     0.307940000000     0.283100000000     0.0421121  
H229     H      0.977420000000     0.260920000000     0.314290000000     0.0447758  
H230     H      0.048950000000     0.148130000000     0.234280000000     0.0489579  
H231     H      0.026940000000     0.262800000000     0.104200000000     0.0376879  
H232     H      0.965300000000     0.194840000000     0.374820000000     0.0323156  
H233     H      0.074830000000     0.313830000000     0.235390000000     0.0484383  
H234     H      0.990590000000     0.156510000000     0.202370000000     0.0475574  
H235     H      0.003610000000     0.369020000000     0.219040000000     0.0348833  
H236     H      0.002980000000     0.086950000000     0.268860000000     0.0302802  
H237     H      0.088880000000     0.255240000000     0.170660000000     0.0477889  
H238     H      0.935730000000     0.217160000000     0.291850000000     0.05453    
H239     H      0.976260000000     0.248490000000     0.146210000000     0.0303863  
H240     H      0.911980000000     0.090680000000     0.221120000000     0.0214862  
N1       N      0.838860000000     0.645250000000     0.004520000000    -0.174933   
N2       N      0.674260000000     0.842470000000     0.955900000000    -0.172046   
N3       N      0.655720000000     0.141390000000     0.029320000000    -0.172825   
N4       N      0.835140000000     0.316670000000     0.017920000000    -0.169568   
N5       N      0.153000000000     0.639740000000     0.970340000000    -0.174716   
N6       N      0.338510000000     0.826710000000     0.953390000000    -0.16995    
N7       N      0.322940000000     0.134540000000     0.967100000000    -0.172355   
N8       N      0.151580000000     0.309980000000     0.991680000000    -0.170064   
N9       N      0.847500000000     0.964020000000     0.667490000000    -0.172371   
N10      N      0.675990000000     0.014490000000     0.838350000000    -0.170059   
N11      N      0.164880000000     0.964410000000     0.645660000000    -0.171648   
N12      N      0.338390000000     0.007000000000     0.818630000000    -0.168605   
N13      N      0.319060000000     0.948460000000     0.126260000000    -0.175374   
N14      N      0.144180000000     0.966080000000     0.313740000000    -0.170358   
N15      N      0.829890000000     0.012390000000     0.336200000000    -0.172206   
N16      N      0.655250000000     0.955790000000     0.146410000000    -0.170056   
N17      N      0.007190000000     0.127610000000     0.658480000000    -0.17405    
N18      N      0.007120000000     0.309560000000     0.848260000000    -0.170146   
N19      N      0.972800000000     0.636490000000     0.834000000000    -0.174826   
N20      N      0.999640000000     0.818570000000     0.654100000000    -0.170826   
N21      N      0.025970000000     0.647390000000     0.140790000000    -0.171723   
N22      N      0.968430000000     0.827860000000     0.323820000000    -0.170013   
N23      N      0.990940000000     0.136820000000     0.328320000000    -0.175444   
N24      N      0.007440000000     0.318430000000     0.157880000000    -0.171015   
O1       O      0.852590000000     0.996280000000     0.416670000000    -0.362394   
O2       O      0.911770000000     0.992880000000     0.355220000000    -0.350436   
O3       O      0.004690000000     0.110010000000     0.576160000000    -0.364147   
O4       O      0.006440000000     0.047820000000     0.633260000000    -0.352918   
O5       O      0.998040000000     0.115550000000     0.409890000000    -0.365809   
O6       O      0.990530000000     0.056300000000     0.351740000000    -0.352734   
O7       O      0.861290000000     0.972210000000     0.583660000000    -0.350918   
O8       O      0.927470000000     0.973060000000     0.636680000000    -0.355136   
O9       O      0.835750000000     0.050470000000     0.511290000000    -0.342003   
O10      O      0.818440000000     0.930050000000     0.495140000000    -0.516031   
O11      O      0.933630000000     0.136730000000     0.496490000000    -0.513495   
O12      O      0.060890000000     0.145100000000     0.490160000000    -0.330774   
O13      O      0.938810000000     0.036470000000     0.446340000000    -0.468548   
O14      O      0.944220000000     0.033360000000     0.544440000000    -0.611018   
O15      O      0.994890000000     0.839410000000     0.572120000000    -0.361358   
O16      O      0.000370000000     0.898800000000     0.630390000000    -0.35409    
O17      O      0.129900000000     0.968420000000     0.397420000000    -0.364641   
O18      O      0.064030000000     0.974960000000     0.344270000000    -0.356891   
O19      O      0.140860000000     0.970690000000     0.564470000000    -0.355496   
O20      O      0.081170000000     0.968660000000     0.625880000000    -0.351579   
O21      O      0.979540000000     0.844010000000     0.405770000000    -0.363822   
O22      O      0.981440000000     0.906410000000     0.348850000000    -0.353788   
O23      O      0.058980000000     0.819020000000     0.481040000000    -0.513738   
O24      O      0.932430000000     0.807960000000     0.493680000000    -0.329975   
O25      O      0.155980000000     0.902600000000     0.482600000000    -0.34184    
O26      O      0.172790000000     0.024780000000     0.476310000000    -0.514217   
O27      O      0.052870000000     0.918070000000     0.534770000000    -0.610406   
O28      O      0.047520000000     0.920640000000     0.436460000000    -0.469465   
O29      O      0.939020000000     0.922420000000     0.546560000000    -0.474612   
O30      O      0.052730000000     0.031610000000     0.435120000000    -0.622628   
O31      O      0.932540000000     0.925950000000     0.441320000000    -0.623319   
O32      O      0.059340000000     0.029040000000     0.540580000000    -0.475698   
O33      O      0.006220000000     0.399690000000     0.136500000000    -0.365932   
O34      O      0.000930000000     0.341560000000     0.076980000000    -0.35873    
O35      O      0.856450000000     0.563150000000     0.005850000000    -0.362033   
O36      O      0.919970000000     0.618100000000     0.996980000000    -0.356214   
O37      O      0.854520000000     0.397920000000     0.012470000000    -0.362492   
O38      O      0.917250000000     0.340250000000     0.010040000000    -0.355353   
O39      O      0.017940000000     0.565110000000     0.127040000000    -0.35418    
O40      O      0.006030000000     0.619150000000     0.063640000000    -0.349399   
O41      O      0.940830000000     0.490080000000     0.160130000000    -0.345742   
O42      O      0.067460000000     0.478870000000     0.163040000000    -0.512829   
O43      O      0.842450000000     0.482370000000     0.081370000000    -0.512894   
O44      O      0.812960000000     0.480070000000     0.959390000000    -0.331348   
O45      O      0.943640000000     0.432010000000     0.059990000000    -0.469803   
O46      O      0.944410000000     0.529120000000     0.055000000000    -0.609974   
O47      O      0.134850000000     0.558020000000     0.976340000000    -0.359472   
O48      O      0.071970000000     0.615370000000     0.981990000000    -0.353705   
O49      O      0.997200000000     0.391070000000     0.863660000000    -0.359746   
O50      O      0.992970000000     0.335560000000     0.927300000000    -0.35632    
O51      O      0.972590000000     0.555830000000     0.856920000000    -0.356621   
O52      O      0.989920000000     0.613990000000     0.913850000000    -0.35601    
O53      O      0.134030000000     0.392160000000     0.987890000000    -0.362666   
O54      O      0.070260000000     0.337370000000     0.995330000000    -0.35507    
O55      O      0.148310000000     0.470700000000     0.910630000000    -0.515624   
O56      O      0.176870000000     0.476720000000     0.032490000000    -0.330594   
O57      O      0.042250000000     0.481130000000     0.825080000000    -0.338996   
O58      O      0.918820000000     0.464930000000     0.832790000000    -0.516499   
O59      O      0.046150000000     0.522930000000     0.931620000000    -0.611225   
O60      O      0.045770000000     0.426420000000     0.936440000000    -0.467597   
O61      O      0.058960000000     0.530520000000     0.043580000000    -0.475201   
O62      O      0.931390000000     0.425090000000     0.947680000000    -0.624351   
O63      O      0.057510000000     0.426990000000     0.048300000000    -0.621779   
O64      O      0.931900000000     0.529260000000     0.943110000000    -0.474422   
O65      O      0.573600000000     0.122010000000     0.013000000000    -0.36034    
O66      O      0.635050000000     0.063300000000     0.008560000000    -0.355829   
O67      O      0.403530000000     0.956420000000     0.112730000000    -0.361313   
O68      O      0.349130000000     0.967720000000     0.048650000000    -0.357314   
O69      O      0.572520000000     0.961140000000     0.123980000000    -0.361334   
O70      O      0.634560000000     0.975430000000     0.066550000000    -0.353444   
O71      O      0.406400000000     0.118530000000     0.981470000000    -0.350902   
O72      O      0.350590000000     0.055870000000     0.979510000000    -0.354965   
O73      O      0.472770000000     0.127520000000     0.074140000000    -0.346989   
O74      O      0.497500000000     0.165520000000     0.957950000000    -0.510213   
O75      O      0.482640000000     0.028000000000     0.147820000000    -0.513883   
O76      O      0.488290000000     0.904180000000     0.147640000000    -0.329394   
O77      O      0.540060000000     0.033080000000     0.049830000000    -0.469029   
O78      O      0.439990000000     0.029700000000     0.043260000000    -0.60766    
O79      O      0.421120000000     0.008940000000     0.841920000000    -0.358482   
O80      O      0.359460000000     0.993230000000     0.899390000000    -0.353611   
O81      O      0.589780000000     0.857580000000     0.958530000000    -0.366486   
O82      O      0.644590000000     0.918140000000     0.976610000000    -0.35731    
O83      O      0.420240000000     0.848320000000     0.964210000000    -0.35559    
O84      O      0.358880000000     0.907360000000     0.960950000000    -0.353372   
O85      O      0.591090000000     0.011320000000     0.852410000000    -0.362434   
O86      O      0.645150000000     0.002930000000     0.917100000000    -0.354748   
O87      O      0.510840000000     0.945980000000     0.816210000000    -0.514918   
O88      O      0.506500000000     0.070100000000     0.820080000000    -0.332691   
O89      O      0.503520000000     0.840300000000     0.892370000000    -0.341703   
O90      O      0.508950000000     0.809450000000     0.013220000000    -0.514666   
O91      O      0.454490000000     0.939350000000     0.916170000000    -0.611764   
O92      O      0.553990000000     0.942710000000     0.922370000000    -0.468904   
O93      O      0.444260000000     0.048830000000     0.931960000000    -0.473466   
O94      O      0.549590000000     0.923110000000     0.033360000000    -0.622782   
O95      O      0.550900000000     0.052420000000     0.938810000000    -0.622121   
O96      O      0.442910000000     0.919590000000     0.027310000000    -0.476005   
S1       S      0.866780000000     0.706940000000     0.932030000000    -0.0415291  
S2       S      0.589680000000     0.196990000000     0.083400000000    -0.0485049  
S3       S      0.210440000000     0.625910000000     0.889870000000    -0.0588715  
S4       S      0.382060000000     0.190630000000     0.906510000000    -0.0418267  
S5       S      0.781110000000     0.908630000000     0.618090000000    -0.0447009  
S6       S      0.108560000000     0.908810000000     0.709400000000    -0.0438429  
S7       S      0.254840000000     0.883800000000     0.090420000000    -0.0629673  
S8       S      0.903330000000     0.041860000000     0.266910000000    -0.00812176 
S9       S      0.080870000000     0.103680000000     0.720730000000    -0.0451129  
S10      S      0.054800000000     0.691770000000     0.836020000000    -0.056571   
S11      S      0.024830000000     0.716270000000     0.062610000000    -0.0276873  
S12      S      0.919070000000     0.115400000000     0.264130000000    -0.0439075  
Zr1      Zr     0.891750000000     0.980670000000     0.497800000000     1.29081    
Zr2      Zr     0.001830000000     0.077920000000     0.492230000000     1.29657    
Zr3      Zr     0.989890000000     0.876380000000     0.489110000000     1.2925     
Zr4      Zr     0.099920000000     0.973680000000     0.483540000000     1.29061    
Zr5      Zr     0.990440000000     0.979870000000     0.397910000000     1.26803    
Zr6      Zr     0.001350000000     0.974580000000     0.583380000000     1.26518    
Zr7      Zr     0.006900000000     0.481290000000     0.097460000000     1.29076    
Zr8      Zr     0.891010000000     0.479670000000     0.005430000000     1.29195    
Zr9      Zr     0.099110000000     0.475740000000     0.986050000000     1.29047    
Zr10     Zr     0.982830000000     0.474400000000     0.894110000000     1.29025    
Zr11     Zr     0.994270000000     0.386450000000     0.000000000000     1.27083    
Zr12     Zr     0.995790000000     0.568910000000     0.991360000000     1.26847    
Zr13     Zr     0.491200000000     0.086040000000     0.996660000000     1.2888     
Zr14     Zr     0.490270000000     0.967710000000     0.083810000000     1.28955    
Zr15     Zr     0.503900000000     0.004650000000     0.881860000000     1.29483    
Zr16     Zr     0.502790000000     0.886250000000     0.968990000000     1.29433    
Zr17     Zr     0.591090000000     0.989190000000     0.988870000000     1.26689    
Zr18     Zr     0.403050000000     0.982820000000     0.976970000000     1.26205    


