data_structure

_audit_creation_method RASPA-1.0
_audit_creation_date 2023-5-19
_audit_author_name 'Poobodin Mano'

_cell_length_a    39.904
_cell_length_b    56.0114
_cell_length_c    34.7648
_cell_angle_alpha 90.0037
_cell_angle_beta  90.0035
_cell_angle_gamma 89.9706
_cell_volume      77702.1

_symmetry_cell_setting          triclinic
_symmetry_space_group_name_Hall 'P 1'
_symmetry_space_group_name_H-M  'P 1'
_symmetry_Int_Tables_number     1

_symmetry_equiv_pos_as_xyz 'x,y,z'

loop_
_atom_site_label
_atom_site_type_symbol
_atom_site_fract_x
_atom_site_fract_y
_atom_site_fract_z
_atom_site_charge
C1       C      0.488190000000     0.397090000000     0.076740000000     0.391314   
C2       C      0.479740000000     0.021300000000     0.436680000000     0.389089   
C3       C      0.474390000000     0.397100000000     0.446470000000     0.393169   
C4       C      0.482140000000     0.021480000000     0.071790000000     0.390768   
C5       C      0.094450000000     0.021790000000     0.074690000000     0.394512   
C6       C      0.103280000000     0.397770000000     0.440440000000     0.389553   
C7       C      0.100410000000     0.021830000000     0.438870000000     0.391279   
C8       C      0.108670000000     0.398250000000     0.058550000000     0.396099   
C9       C      0.360680000000     0.270710000000     0.302650000000     0.392977   
C10      C      0.352370000000     0.146320000000     0.177250000000     0.389882   
C11      C      0.346160000000     0.270690000000     0.171940000000     0.390991   
C12      C      0.355160000000     0.146580000000     0.312790000000     0.387897   
C13      C      0.234740000000     0.146050000000     0.310920000000     0.391809   
C14      C      0.225890000000     0.269500000000     0.191280000000     0.394368   
C15      C      0.240040000000     0.145940000000     0.175190000000     0.394391   
C16      C      0.231950000000     0.270160000000     0.309130000000     0.391594   
C17      C      0.127840000000     0.034650000000     0.131350000000     0.0119059  
C18      C      0.206450000000     0.133040000000     0.118720000000     0.0124268  
C19      C      0.236780000000     0.102960000000     0.157710000000     0.0121217  
C20      C      0.174030000000     0.118530000000     0.119140000000    -0.0998578  
C21      C      0.160250000000     0.049180000000     0.131020000000    -0.0996371  
C22      C      0.206060000000     0.086650000000     0.159850000000    -0.0996298  
C23      C      0.155390000000     0.075380000000     0.119980000000     0.0161606  
C24      C      0.178880000000     0.092330000000     0.130160000000     0.0163995  
C25      C      0.097510000000     0.064740000000     0.092430000000     0.0121349  
C26      C      0.128200000000     0.081070000000     0.090320000000    -0.0997236  
C27      C      0.113620000000     0.064760000000     0.434930000000     0.0115208  
C28      C      0.221590000000     0.103120000000     0.315210000000     0.0115337  
C29      C      0.185420000000     0.134420000000     0.348910000000     0.0122316  
C30      C      0.210140000000     0.085710000000     0.346630000000    -0.101457   
C31      C      0.125160000000     0.082240000000     0.403640000000    -0.101231   
C32      C      0.159470000000     0.114380000000     0.348180000000    -0.102736   
C33      C      0.159860000000     0.076560000000     0.388000000000     0.0170544  
C34      C      0.175460000000     0.091400000000     0.362340000000     0.0174622  
C35      C      0.149960000000     0.033520000000     0.401310000000     0.0107399  
C36      C      0.175850000000     0.053590000000     0.402200000000    -0.101734   
C37      C      0.206090000000     0.311350000000     0.195680000000     0.012904   
C38      C      0.128290000000     0.356350000000     0.054450000000     0.0131648  
C39      C      0.161840000000     0.386300000000     0.090150000000     0.0126392  
C40      C      0.131390000000     0.337930000000     0.086570000000    -0.100428   
C41      C      0.202910000000     0.329800000000     0.163620000000    -0.100271   
C42      C      0.167670000000     0.369080000000     0.123660000000    -0.100277   
C43      C      0.174080000000     0.324800000000     0.135890000000     0.0161738  
C44      C      0.160230000000     0.342930000000     0.114310000000     0.0169244  
C45      C      0.172550000000     0.281410000000     0.160010000000     0.0107456  
C46      C      0.166600000000     0.298640000000     0.126540000000    -0.0994947  
C47      C      0.364140000000     0.103180000000     0.172230000000     0.00991725 
C48      C      0.470200000000     0.064590000000     0.076710000000     0.0101336  
C49      C      0.437000000000     0.034010000000     0.116110000000     0.0101487  
C50      C      0.464780000000     0.082680000000     0.109090000000    -0.101924   
C51      C      0.369510000000     0.085080000000     0.139880000000    -0.101726   
C52      C      0.432120000000     0.053190000000     0.147060000000    -0.101914   
C53      C      0.402800000000     0.090310000000     0.121050000000     0.019824   
C54      C      0.431490000000     0.077430000000     0.127870000000     0.0200359  
C55      C      0.397320000000     0.133740000000     0.132710000000     0.00867615 
C56      C      0.402150000000     0.114530000000     0.101800000000    -0.101133   
C57      C      0.421280000000     0.384630000000     0.415330000000     0.0121475  
C58      C      0.413820000000     0.283210000000     0.333730000000     0.0102063  
C59      C      0.377270000000     0.313420000000     0.302640000000     0.0117309  
C60      C      0.419250000000     0.298890000000     0.369180000000    -0.0992328  
C61      C      0.415830000000     0.368950000000     0.379890000000    -0.100366   
C62      C      0.381170000000     0.330760000000     0.336380000000    -0.099892   
C63      C      0.424330000000     0.342640000000     0.386200000000     0.0163815  
C64      C      0.410740000000     0.325190000000     0.362890000000     0.0160258  
C65      C      0.457780000000     0.354410000000     0.446440000000     0.0118676  
C66      C      0.453880000000     0.337070000000     0.412710000000    -0.0999841  
C67      C      0.467530000000     0.064460000000     0.429750000000     0.00981934 
C68      C      0.367260000000     0.103420000000     0.319900000000     0.00925303 
C69      C      0.401210000000     0.134450000000     0.356450000000     0.00892146 
C70      C      0.370960000000     0.086450000000     0.354260000000    -0.100968   
C71      C      0.463700000000     0.081480000000     0.395480000000    -0.101468   
C72      C      0.404210000000     0.116890000000     0.390090000000    -0.10098    
C73      C      0.430870000000     0.076340000000     0.375110000000     0.0191147  
C74      C      0.403750000000     0.091560000000     0.374690000000     0.0185401  
C75      C      0.433560000000     0.033430000000     0.393220000000     0.00979231 
C76      C      0.430440000000     0.051030000000     0.359640000000    -0.101398   
C77      C      0.179050000000     0.281860000000     0.341010000000     0.0118099  
C78      C      0.156300000000     0.386110000000     0.408780000000     0.00946279 
C79      C      0.120420000000     0.355330000000     0.439930000000     0.0116197  
C80      C      0.165250000000     0.369190000000     0.375730000000    -0.0995224  
C81      C      0.170220000000     0.298740000000     0.374130000000    -0.100605   
C82      C      0.127710000000     0.337260000000     0.407970000000    -0.100244   
C83      C      0.176410000000     0.325080000000     0.365360000000     0.0168099  
C84      C      0.159070000000     0.342860000000     0.384540000000     0.016106   
C85      C      0.214980000000     0.312640000000     0.309880000000     0.0121357  
C86      C      0.207780000000     0.330670000000     0.341920000000    -0.100546   
C87      C      0.347080000000     0.313440000000     0.152900000000     0.0122418  
C88      C      0.486920000000     0.354290000000     0.095440000000     0.0123399  
C89      C      0.454100000000     0.383860000000     0.132640000000     0.011784   
C90      C      0.456980000000     0.337490000000     0.091320000000    -0.099414   
C91      C      0.376960000000     0.330290000000     0.156870000000    -0.0992984  
C92      C      0.422350000000     0.368630000000     0.130910000000    -0.0992809  
C93      C      0.405380000000     0.325180000000     0.128490000000     0.0163032  
C94      C      0.428550000000     0.342580000000     0.119690000000     0.0165784  
C95      C      0.379880000000     0.283870000000     0.115690000000     0.0111715  
C96      C      0.411590000000     0.299130000000     0.117230000000    -0.0991104  
H1       H      0.469800000000     0.492180000000     0.005460000000     0.195583   
H2       H      0.038280000000     0.425250000000     0.422490000000     0.189777   
H3       H      0.109920000000     0.492940000000     0.001450000000     0.192025   
H4       H      0.043870000000     0.426160000000     0.083750000000     0.197176   
H5       H      0.493940000000     0.438840000000     0.372330000000     0.132792   
H6       H      0.070360000000     0.472700000000     0.362120000000     0.203291   
H7       H      0.158400000000     0.462800000000     0.455600000000     0.124614   
H8       H      0.163180000000     0.466860000000     0.033790000000     0.181429   
H9       H      0.075500000000     0.466600000000     0.137720000000     0.135845   
H10      H      0.011860000000     0.452940000000     0.145290000000     0.18808    
H11      H      0.425740000000     0.446920000000     0.039350000000     0.135493   
H12      H      0.416020000000     0.465630000000     0.466670000000     0.186252   
H13      H      0.163760000000     0.465800000000     0.081910000000     0.197387   
H14      H      0.475070000000     0.467300000000     0.145740000000     0.199868   
H15      H      0.417480000000     0.458220000000     0.420050000000     0.196786   
H16      H      0.078520000000     0.443380000000     0.361910000000     0.192811   
H17      H      0.365050000000     0.175600000000     0.243850000000     0.19206    
H18      H      0.290930000000     0.241610000000     0.165540000000     0.19259    
H19      H      0.224960000000     0.174900000000     0.248030000000     0.194307   
H20      H      0.296730000000     0.242580000000     0.326800000000     0.197403   
H21      H      0.318350000000     0.210370000000     0.110110000000     0.130148   
H22      H      0.246150000000     0.199700000000     0.105150000000     0.19721    
H23      H      0.175860000000     0.207580000000     0.217390000000     0.126704   
H24      H      0.171940000000     0.205280000000     0.297750000000     0.184344   
H25      H      0.266960000000     0.193730000000     0.380800000000     0.140911   
H26      H      0.343870000000     0.227680000000     0.382780000000     0.195255   
H27      H      0.414150000000     0.209260000000     0.277820000000     0.130269   
H28      H      0.415620000000     0.196970000000     0.200010000000     0.186629   
H29      H      0.179690000000     0.207970000000     0.344880000000     0.19716    
H30      H      0.339170000000     0.198060000000     0.386220000000     0.198078   
H31      H      0.414920000000     0.223730000000     0.178670000000     0.199711   
H32      H      0.242790000000     0.229240000000     0.111110000000     0.191397   
H33      H      0.170630000000     0.047360000000     0.160480000000     0.041584   
H34      H      0.221250000000     0.128400000000     0.092630000000     0.0249022  
H35      H      0.081640000000     0.070030000000     0.117350000000     0.0267415  
H36      H      0.118200000000     0.099400000000     0.094160000000     0.0419658  
H37      H      0.163600000000     0.120360000000     0.089700000000     0.0420602  
H38      H      0.216050000000     0.068310000000     0.156050000000     0.0413579  
H39      H      0.134700000000     0.015490000000     0.133930000000     0.0327899  
H40      H      0.199610000000     0.152210000000     0.116100000000     0.0346483  
H41      H      0.139420000000     0.079730000000     0.061130000000     0.0487398  
H42      H      0.194840000000     0.088030000000     0.189030000000     0.0493176  
H43      H      0.082290000000     0.067770000000     0.066100000000     0.036637   
H44      H      0.252650000000     0.097640000000     0.132820000000     0.0265231  
H45      H      0.178130000000     0.040960000000     0.110380000000     0.0478355  
H46      H      0.156200000000     0.126760000000     0.139820000000     0.0514235  
H47      H      0.251960000000     0.099960000000     0.184070000000     0.0366913  
H48      H      0.113010000000     0.039250000000     0.157440000000     0.0260998  
H49      H      0.106840000000     0.081840000000     0.379550000000     0.0489609  
H50      H      0.248760000000     0.099850000000     0.310230000000     0.0354719  
H51      H      0.142420000000     0.029840000000     0.371080000000     0.0323627  
H52      H      0.197750000000     0.047590000000     0.385240000000     0.0424031  
H53      H      0.228500000000     0.086180000000     0.370680000000     0.0485369  
H54      H      0.137670000000     0.120430000000     0.365270000000     0.0416637  
H55      H      0.127040000000     0.068700000000     0.462250000000     0.0281362  
H56      H      0.208090000000     0.099130000000     0.287960000000     0.0286344  
H57      H      0.184740000000     0.056310000000     0.432190000000     0.0484349  
H58      H      0.150460000000     0.111670000000     0.318250000000     0.0491046  
H59      H      0.162330000000     0.017250000000     0.413010000000     0.0346334  
H60      H      0.193120000000     0.138100000000     0.379100000000     0.0292929  
H61      H      0.124990000000     0.100280000000     0.416920000000     0.0420095  
H62      H      0.210310000000     0.067640000000     0.333460000000     0.0424903  
H63      H      0.173030000000     0.150710000000     0.337310000000     0.0293653  
H64      H      0.086440000000     0.068030000000     0.439830000000     0.0358453  
H65      H      0.199690000000     0.347090000000     0.178720000000     0.0416616  
H66      H      0.148860000000     0.353590000000     0.033320000000     0.0256759  
H67      H      0.151340000000     0.282650000000     0.180710000000     0.0274643  
H68      H      0.139950000000     0.296020000000     0.118530000000     0.0419026  
H69      H      0.134560000000     0.320620000000     0.071530000000     0.0414641  
H70      H      0.194300000000     0.371720000000     0.131770000000     0.041786   
H71      H      0.230030000000     0.314780000000     0.211070000000     0.0364779  
H72      H      0.104360000000     0.352930000000     0.039060000000     0.0365419  
H73      H      0.182540000000     0.293200000000     0.101820000000     0.0470372  
H74      H      0.151660000000     0.374530000000     0.148310000000     0.0501629  
H75      H      0.172380000000     0.262990000000     0.148090000000     0.0354212  
H76      H      0.183090000000     0.385030000000     0.069510000000     0.0260078  
H77      H      0.226680000000     0.330370000000     0.146970000000     0.0493086  
H78      H      0.107610000000     0.337420000000     0.103210000000     0.0501589  
H79      H      0.162000000000     0.404730000000     0.102040000000     0.0348947  
H80      H      0.185530000000     0.314070000000     0.216850000000     0.0258976  
H81      H      0.366330000000     0.066710000000     0.150740000000     0.0421945  
H82      H      0.452380000000     0.068310000000     0.052840000000     0.0287135  
H83      H      0.420660000000     0.135370000000     0.150000000000     0.0260194  
H84      H      0.424100000000     0.118730000000     0.083740000000     0.0425691  
H85      H      0.467960000000     0.101060000000     0.098270000000     0.0422452  
H86      H      0.410150000000     0.048950000000     0.165070000000     0.0420732  
H87      H      0.338310000000     0.100280000000     0.183270000000     0.0374457  
H88      H      0.496040000000     0.067540000000     0.065690000000     0.0374164  
H89      H      0.380480000000     0.115270000000     0.081700000000     0.0501536  
H90      H      0.453770000000     0.052440000000     0.167190000000     0.0488995  
H91      H      0.393270000000     0.150960000000     0.117460000000     0.0385084  
H92      H      0.413700000000     0.032400000000     0.098750000000     0.0285596  
H93      H      0.349170000000     0.087340000000     0.118290000000     0.0496726  
H94      H      0.485110000000     0.080410000000     0.130700000000     0.0494554  
H95      H      0.441020000000     0.016780000000     0.131320000000     0.0327075  
H96      H      0.381970000000     0.099470000000     0.196100000000     0.0283698  
H97      H      0.389050000000     0.371430000000     0.372310000000     0.0412167  
H98      H      0.434400000000     0.286350000000     0.312730000000     0.0276074  
H99      H      0.438710000000     0.350280000000     0.468830000000     0.0268183  
H100     H      0.451310000000     0.319220000000     0.426230000000     0.0416588  
H101     H      0.446020000000     0.296400000000     0.376790000000     0.0419809  
H102     H      0.383730000000     0.348600000000     0.322880000000     0.0413682  
H103     H      0.419350000000     0.403540000000     0.405920000000     0.030374   
H104     H      0.415770000000     0.264300000000     0.343130000000     0.0374891  
H105     H      0.477230000000     0.337250000000     0.395260000000     0.048611   
H106     H      0.357840000000     0.330560000000     0.353840000000     0.0489121  
H107     H      0.482760000000     0.351130000000     0.459570000000     0.036129   
H108     H      0.396340000000     0.317560000000     0.280250000000     0.0266988  
H109     H      0.431450000000     0.375800000000     0.355840000000     0.0474494  
H110     H      0.403610000000     0.292020000000     0.393220000000     0.0479617  
H111     H      0.352290000000     0.316690000000     0.289530000000     0.0362497  
H112     H      0.400690000000     0.381530000000     0.436340000000     0.02587    
H113     H      0.467360000000     0.100000000000     0.405250000000     0.0424914  
H114     H      0.385890000000     0.098620000000     0.297400000000     0.0279296  
H115     H      0.410230000000     0.033860000000     0.410700000000     0.0264716  
H116     H      0.408600000000     0.046210000000     0.341880000000     0.042029   
H117     H      0.367240000000     0.067910000000     0.344590000000     0.0417657  
H118     H      0.426000000000     0.121710000000     0.407930000000     0.0425007  
H119     H      0.492970000000     0.067470000000     0.441870000000     0.0372198  
H120     H      0.341850000000     0.100430000000     0.307710000000     0.0369022  
H121     H      0.452400000000     0.048590000000     0.340330000000     0.0506121  
H122     H      0.382200000000     0.119380000000     0.409310000000     0.0488596  
H123     H      0.435830000000     0.015290000000     0.380490000000     0.0360253  
H124     H      0.424600000000     0.133980000000     0.339050000000     0.0295572  
H125     H      0.484640000000     0.078140000000     0.375060000000     0.0503558  
H126     H      0.349970000000     0.089870000000     0.374600000000     0.0493029  
H127     H      0.398940000000     0.152610000000     0.369110000000     0.0366592  
H128     H      0.448940000000     0.069200000000     0.452350000000     0.0278164  
H129     H      0.143460000000     0.295070000000     0.380150000000     0.0414774  
H130     H      0.176160000000     0.385250000000     0.431220000000     0.0290582  
H131     H      0.197270000000     0.315710000000     0.285700000000     0.0266937  
H132     H      0.205820000000     0.348050000000     0.326870000000     0.0416545  
H133     H      0.192030000000     0.372880000000     0.369810000000     0.0422364  
H134     H      0.129730000000     0.319910000000     0.423110000000     0.0413397  
H135     H      0.178820000000     0.263430000000     0.352890000000     0.0337678  
H136     H      0.156490000000     0.404530000000     0.396820000000     0.0389157  
H137     H      0.229580000000     0.331390000000     0.361820000000     0.0492725  
H138     H      0.105930000000     0.336470000000     0.388060000000     0.048466   
H139     H      0.240640000000     0.316420000000     0.299010000000     0.0359853  
H140     H      0.138120000000     0.352330000000     0.464150000000     0.0269502  
H141     H      0.185140000000     0.293790000000     0.399930000000     0.0492481  
H142     H      0.150410000000     0.374120000000     0.349860000000     0.0480328  
H143     H      0.094760000000     0.351520000000     0.450800000000     0.0358301  
H144     H      0.159150000000     0.282790000000     0.318630000000     0.0267366  
H145     H      0.366460000000     0.348460000000     0.152740000000     0.0416909  
H146     H      0.001620000000     0.349290000000     0.121420000000     0.0253552  
H147     H      0.365650000000     0.288070000000     0.088990000000     0.0254612  
H148     H      0.422740000000     0.297720000000     0.088080000000     0.0415766  
H149     H      0.467420000000     0.319310000000     0.095330000000     0.0415432  
H150     H      0.411080000000     0.370070000000     0.160000000000     0.0416483  
H151     H      0.330390000000     0.316230000000     0.178100000000     0.0360271  
H152     H      0.003620000000     0.351510000000     0.070250000000     0.036432   
H153     H      0.429320000000     0.291190000000     0.138310000000     0.0481198  
H154     H      0.404730000000     0.376610000000     0.109730000000     0.0506389  
H155     H      0.387590000000     0.264840000000     0.113600000000     0.0343821  
H156     H      0.468220000000     0.379610000000     0.159390000000     0.0243878  
H157     H      0.387100000000     0.328960000000     0.186580000000     0.049957   
H158     H      0.446880000000     0.338900000000     0.061600000000     0.0501584  
H159     H      0.446430000000     0.402880000000     0.134760000000     0.0350553  
H160     H      0.332320000000     0.318370000000     0.126920000000     0.0248206  
N1       N      0.226720000000     0.128020000000     0.153070000000    -0.173637   
N2       N      0.107610000000     0.039690000000     0.097000000000    -0.174143   
N3       N      0.215300000000     0.128250000000     0.325920000000    -0.175697   
N4       N      0.119940000000     0.039660000000     0.424110000000    -0.175095   
N5       N      0.130530000000     0.380720000000     0.069840000000    -0.173728   
N6       N      0.203890000000     0.287010000000     0.180210000000    -0.174381   
N7       N      0.465470000000     0.039630000000     0.090150000000    -0.173247   
N8       N      0.368910000000     0.128140000000     0.158760000000    -0.172669   
N9       N      0.381590000000     0.288550000000     0.315150000000    -0.173777   
N10      N      0.453490000000     0.379270000000     0.433930000000    -0.174635   
N11      N      0.372280000000     0.128670000000     0.331360000000    -0.172785   
N12      N      0.462550000000     0.039220000000     0.418220000000    -0.172345   
N13      N      0.123900000000     0.380110000000     0.426500000000    -0.172836   
N14      N      0.211440000000     0.287850000000     0.323210000000    -0.172692   
N15      N      0.475620000000     0.379120000000     0.099250000000    -0.174155   
N16      N      0.358470000000     0.288620000000     0.149160000000    -0.174667   
O1       O      0.479180000000     0.418740000000     0.084140000000    -0.378238   
O2       O      0.009090000000     0.391540000000     0.049990000000    -0.375013   
O3       O      0.472110000000     0.499450000000     0.428770000000    -0.371166   
O4       O      0.002460000000     0.027130000000     0.461280000000    -0.371552   
O5       O      0.466880000000     0.418860000000     0.437920000000    -0.382458   
O6       O      0.000070000000     0.391330000000     0.466900000000    -0.376197   
O7       O      0.475470000000     0.499710000000     0.081300000000    -0.374868   
O8       O      0.003340000000     0.027120000000     0.045440000000    -0.373147   
O9       O      0.431120000000     0.457720000000     0.061030000000    -0.354333   
O10      O      0.493350000000     0.460130000000     0.131620000000    -0.523395   
O11      O      0.428810000000     0.461390000000     0.444080000000    -0.520866   
O12      O      0.493000000000     0.456180000000     0.377800000000    -0.352847   
O13      O      0.490130000000     0.436240000000     0.005090000000    -0.499372   
O14      O      0.489350000000     0.482020000000     0.004920000000    -0.63259    
O15      O      0.102860000000     0.000080000000     0.082340000000    -0.381209   
O16      O      0.073940000000     0.027490000000     0.047610000000    -0.370624   
O17      O      0.110640000000     0.419690000000     0.432740000000    -0.37323    
O18      O      0.078150000000     0.391700000000     0.461530000000    -0.371664   
O19      O      0.107030000000     0.000130000000     0.428980000000    -0.379262   
O20      O      0.077430000000     0.027530000000     0.463140000000    -0.376674   
O21      O      0.115330000000     0.420050000000     0.067760000000    -0.371702   
O22      O      0.083060000000     0.392150000000     0.038350000000    -0.370189   
O23      O      0.151470000000     0.465270000000     0.057970000000    -0.523457   
O24      O      0.091050000000     0.454200000000     0.128040000000    -0.358433   
O25      O      0.147740000000     0.460900000000     0.430060000000    -0.335749   
O26      O      0.076790000000     0.458330000000     0.375630000000    -0.528534   
O27      O      0.090540000000     0.482620000000     0.001340000000    -0.632261   
O28      O      0.090630000000     0.437220000000     0.001150000000    -0.496722   
O29      O      0.041510000000     0.482570000000     0.061300000000    -0.497847   
O30      O      0.038770000000     0.435890000000     0.444370000000    -0.629439   
O31      O      0.042390000000     0.436430000000     0.061510000000    -0.631924   
O32      O      0.038190000000     0.482850000000     0.444640000000    -0.493642   
O33      O      0.368180000000     0.248960000000     0.311240000000    -0.376956   
O34      O      0.334990000000     0.276480000000     0.282250000000    -0.375483   
O35      O      0.358990000000     0.168080000000     0.167600000000    -0.373513   
O36      O      0.331390000000     0.140710000000     0.203830000000    -0.373621   
O37      O      0.355080000000     0.249020000000     0.164480000000    -0.38102    
O38      O      0.325570000000     0.276270000000     0.198980000000    -0.375655   
O39      O      0.362840000000     0.168440000000     0.320620000000    -0.375377   
O40      O      0.332440000000     0.140740000000     0.288210000000    -0.372788   
O41      O      0.406750000000     0.206310000000     0.304590000000    -0.340933   
O42      O      0.342360000000     0.212180000000     0.370680000000    -0.527925   
O43      O      0.403170000000     0.210070000000     0.188950000000    -0.529048   
O44      O      0.342040000000     0.207310000000     0.117030000000    -0.341406   
O45      O      0.344830000000     0.231610000000     0.244170000000    -0.496396   
O46      O      0.345520000000     0.185790000000     0.244410000000    -0.632577   
O47      O      0.228180000000     0.167760000000     0.320780000000    -0.383305   
O48      O      0.257570000000     0.140320000000     0.286470000000    -0.37724    
O49      O      0.219190000000     0.247700000000     0.182180000000    -0.379222   
O50      O      0.251670000000     0.275640000000     0.211170000000    -0.371009   
O51      O      0.231590000000     0.167650000000     0.167540000000    -0.376722   
O52      O      0.260750000000     0.140280000000     0.202080000000    -0.370138   
O53      O      0.224590000000     0.248250000000     0.316870000000    -0.370277   
O54      O      0.256970000000     0.276200000000     0.287860000000    -0.370973   
O55      O      0.187700000000     0.206920000000     0.318700000000    -0.516559   
O56      O      0.258020000000     0.209740000000     0.374430000000    -0.359974   
O57      O      0.182800000000     0.202500000000     0.191300000000    -0.344717   
O58      O      0.244100000000     0.213370000000     0.121930000000    -0.533514   
O59      O      0.244350000000     0.185220000000     0.248050000000    -0.632439   
O60      O      0.244300000000     0.230620000000     0.248130000000    -0.497369   
O61      O      0.296730000000     0.185040000000     0.304730000000    -0.500452   
O62      O      0.292480000000     0.231360000000     0.187800000000    -0.631374   
O63      O      0.296180000000     0.231960000000     0.304890000000    -0.629806   
O64      O      0.293370000000     0.185230000000     0.188120000000    -0.497238   
Zr1      Zr     0.492080000000     0.459200000000     0.062330000000     1.37402    
Zr2      Zr     0.489020000000     0.459090000000     0.447560000000     1.37033    
Zr3      Zr     0.091580000000     0.459850000000     0.058620000000     1.37676    
Zr4      Zr     0.087940000000     0.459730000000     0.443720000000     1.37275    
Zr5      Zr     0.040900000000     0.414050000000     0.003170000000     1.37334    
Zr6      Zr     0.039640000000     0.004850000000     0.003170000000     1.37552    
Zr7      Zr     0.345910000000     0.208770000000     0.301690000000     1.37327    
Zr8      Zr     0.342820000000     0.208590000000     0.187000000000     1.37433    
Zr9      Zr     0.246960000000     0.208160000000     0.305600000000     1.37157    
Zr10     Zr     0.243300000000     0.207940000000     0.190720000000     1.37727    
Zr11     Zr     0.294040000000     0.253790000000     0.246080000000     1.37374    
Zr12     Zr     0.295230000000     0.162970000000     0.246270000000     1.37621    
C97      C      0.488190000000     0.397090000000     0.576740000000     0.391466   
C98      C      0.479740000000     0.021300000000     0.936680000000     0.389092   
C99      C      0.474390000000     0.397110000000     0.946470000000     0.39301    
C100     C      0.482140000000     0.021480000000     0.571790000000     0.390778   
C101     C      0.094450000000     0.021800000000     0.574690000000     0.394414   
C102     C      0.103280000000     0.397770000000     0.940440000000     0.389577   
C103     C      0.100410000000     0.021830000000     0.938870000000     0.391293   
C104     C      0.108670000000     0.398250000000     0.558550000000     0.396092   
C105     C      0.360680000000     0.270710000000     0.802650000000     0.392892   
C106     C      0.352370000000     0.146320000000     0.677240000000     0.389849   
C107     C      0.346160000000     0.270690000000     0.671930000000     0.390946   
C108     C      0.355160000000     0.146580000000     0.812790000000     0.387953   
C109     C      0.234740000000     0.146050000000     0.810920000000     0.391811   
C110     C      0.225890000000     0.269500000000     0.691280000000     0.394319   
C111     C      0.240040000000     0.145940000000     0.675190000000     0.394217   
C112     C      0.231950000000     0.270160000000     0.809130000000     0.391498   
C113     C      0.127840000000     0.034650000000     0.631350000000     0.0119303  
C114     C      0.206450000000     0.133040000000     0.618720000000     0.0124464  
C115     C      0.236780000000     0.102960000000     0.657710000000     0.0120891  
C116     C      0.174030000000     0.118530000000     0.619130000000    -0.099888   
C117     C      0.160250000000     0.049180000000     0.631020000000    -0.0996492  
C118     C      0.206060000000     0.086650000000     0.659850000000    -0.0996222  
C119     C      0.155390000000     0.075380000000     0.619980000000     0.0161731  
C120     C      0.178880000000     0.092330000000     0.630160000000     0.0164056  
C121     C      0.097510000000     0.064740000000     0.592430000000     0.0121406  
C122     C      0.128200000000     0.081070000000     0.590320000000    -0.0997349  
C123     C      0.113620000000     0.064760000000     0.934930000000     0.0115347  
C124     C      0.221590000000     0.103120000000     0.815210000000     0.011533   
C125     C      0.185420000000     0.134420000000     0.848910000000     0.0121992  
C126     C      0.210140000000     0.085710000000     0.846630000000    -0.101451   
C127     C      0.125160000000     0.082240000000     0.903650000000    -0.101226   
C128     C      0.159470000000     0.114380000000     0.848180000000    -0.102697   
C129     C      0.159860000000     0.076560000000     0.888000000000     0.0170759  
C130     C      0.175460000000     0.091390000000     0.862330000000     0.0174369  
C131     C      0.149960000000     0.033530000000     0.901310000000     0.0108483  
C132     C      0.175850000000     0.053590000000     0.902200000000    -0.101794   
C133     C      0.206090000000     0.311350000000     0.695680000000     0.0128862  
C134     C      0.128290000000     0.356350000000     0.554450000000     0.0131561  
C135     C      0.161840000000     0.386300000000     0.590150000000     0.0126122  
C136     C      0.131390000000     0.337930000000     0.586570000000    -0.100429   
C137     C      0.202910000000     0.329800000000     0.663630000000    -0.100194   
C138     C      0.167670000000     0.369080000000     0.623650000000    -0.100187   
C139     C      0.174080000000     0.324800000000     0.635890000000     0.0161598  
C140     C      0.160230000000     0.342930000000     0.614300000000     0.0169322  
C141     C      0.172550000000     0.281410000000     0.660010000000     0.0107601  
C142     C      0.166600000000     0.298640000000     0.626540000000    -0.0995478  
C143     C      0.364140000000     0.103180000000     0.672230000000     0.0099333  
C144     C      0.470200000000     0.064590000000     0.576710000000     0.0101485  
C145     C      0.437000000000     0.034010000000     0.616110000000     0.0101396  
C146     C      0.464780000000     0.082680000000     0.609080000000    -0.101866   
C147     C      0.369510000000     0.085080000000     0.639880000000    -0.101748   
C148     C      0.432120000000     0.053190000000     0.647060000000    -0.101887   
C149     C      0.402800000000     0.090310000000     0.621050000000     0.0198644  
C150     C      0.431480000000     0.077430000000     0.627870000000     0.0199799  
C151     C      0.397320000000     0.133740000000     0.632710000000     0.00868363 
C152     C      0.402150000000     0.114530000000     0.601800000000    -0.101152   
C153     C      0.421280000000     0.384630000000     0.915330000000     0.0121389  
C154     C      0.413820000000     0.283210000000     0.833730000000     0.010201   
C155     C      0.377270000000     0.313420000000     0.802650000000     0.0117963  
C156     C      0.419250000000     0.298890000000     0.869180000000    -0.0992457  
C157     C      0.415830000000     0.368950000000     0.879890000000    -0.10036    
C158     C      0.381170000000     0.330760000000     0.836390000000    -0.099933   
C159     C      0.424330000000     0.342640000000     0.886200000000     0.0163754  
C160     C      0.410740000000     0.325190000000     0.862890000000     0.0160606  
C161     C      0.457780000000     0.354410000000     0.946440000000     0.0118477  
C162     C      0.453880000000     0.337070000000     0.912710000000    -0.0999758  
C163     C      0.467530000000     0.064460000000     0.929750000000     0.00981183 
C164     C      0.367260000000     0.103410000000     0.819900000000     0.00919576 
C165     C      0.401210000000     0.134450000000     0.856440000000     0.0089179  
C166     C      0.370960000000     0.086450000000     0.854260000000    -0.100955   
C167     C      0.463700000000     0.081480000000     0.895480000000    -0.101466   
C168     C      0.404210000000     0.116890000000     0.890090000000    -0.100985   
C169     C      0.430870000000     0.076340000000     0.875110000000     0.019125   
C170     C      0.403750000000     0.091560000000     0.874690000000     0.0185496  
C171     C      0.433560000000     0.033430000000     0.893220000000     0.00976427 
C172     C      0.430440000000     0.051030000000     0.859640000000    -0.101427   
C173     C      0.179050000000     0.281860000000     0.841000000000     0.0118126  
C174     C      0.156300000000     0.386110000000     0.908780000000     0.00952246 
C175     C      0.120420000000     0.355330000000     0.939930000000     0.0115936  
C176     C      0.165250000000     0.369200000000     0.875730000000    -0.0995839  
C177     C      0.170220000000     0.298740000000     0.874130000000    -0.100605   
C178     C      0.127710000000     0.337260000000     0.907970000000    -0.100243   
C179     C      0.176410000000     0.325080000000     0.865370000000     0.0168084  
C180     C      0.159080000000     0.342870000000     0.884530000000     0.0161014  
C181     C      0.214980000000     0.312640000000     0.809880000000     0.0121417  
C182     C      0.207780000000     0.330670000000     0.841920000000    -0.100545   
C183     C      0.347080000000     0.313440000000     0.652900000000     0.0122311  
C184     C      0.486920000000     0.354290000000     0.595430000000     0.0123357  
C185     C      0.454100000000     0.383860000000     0.632640000000     0.011951   
C186     C      0.456980000000     0.337490000000     0.591320000000    -0.0994339  
C187     C      0.376960000000     0.330290000000     0.656870000000    -0.0992835  
C188     C      0.422350000000     0.368640000000     0.630920000000    -0.0994514  
C189     C      0.405380000000     0.325180000000     0.628490000000     0.0162891  
C190     C      0.428550000000     0.342590000000     0.619690000000     0.0166283  
C191     C      0.379880000000     0.283870000000     0.615690000000     0.0111681  
C192     C      0.411590000000     0.299130000000     0.617230000000    -0.0991015  
H161     H      0.469800000000     0.492180000000     0.505460000000     0.195628   
H162     H      0.038280000000     0.425250000000     0.922490000000     0.189748   
H163     H      0.109920000000     0.492940000000     0.501450000000     0.192106   
H164     H      0.043870000000     0.426160000000     0.583750000000     0.197189   
H165     H      0.493940000000     0.438850000000     0.872320000000     0.132989   
H166     H      0.070360000000     0.472710000000     0.862120000000     0.203239   
H167     H      0.158400000000     0.462800000000     0.955600000000     0.124692   
H168     H      0.163180000000     0.466860000000     0.533780000000     0.181302   
H169     H      0.075500000000     0.466600000000     0.637720000000     0.135837   
H170     H      0.011860000000     0.452940000000     0.645290000000     0.188081   
H171     H      0.425740000000     0.446920000000     0.539350000000     0.135541   
H172     H      0.416010000000     0.465630000000     0.966680000000     0.186042   
H173     H      0.163760000000     0.465800000000     0.581910000000     0.19736    
H174     H      0.475070000000     0.467300000000     0.645740000000     0.199869   
H175     H      0.417480000000     0.458220000000     0.920050000000     0.196712   
H176     H      0.078520000000     0.443380000000     0.861910000000     0.192537   
H177     H      0.365050000000     0.175600000000     0.743850000000     0.192056   
H178     H      0.290930000000     0.241610000000     0.665540000000     0.192593   
H179     H      0.224960000000     0.174900000000     0.748030000000     0.194311   
H180     H      0.296730000000     0.242570000000     0.826800000000     0.197602   
H181     H      0.318350000000     0.210370000000     0.610110000000     0.130161   
H182     H      0.246150000000     0.199700000000     0.605150000000     0.197232   
H183     H      0.175860000000     0.207580000000     0.717400000000     0.126582   
H184     H      0.171940000000     0.205280000000     0.797750000000     0.184352   
H185     H      0.266960000000     0.193730000000     0.880800000000     0.140927   
H186     H      0.343870000000     0.227680000000     0.882790000000     0.195157   
H187     H      0.414150000000     0.209260000000     0.777820000000     0.13029    
H188     H      0.415620000000     0.196960000000     0.700010000000     0.186395   
H189     H      0.179690000000     0.207970000000     0.844880000000     0.197176   
H190     H      0.339170000000     0.198060000000     0.886230000000     0.197968   
H191     H      0.414920000000     0.223730000000     0.678670000000     0.199653   
H192     H      0.242790000000     0.229240000000     0.611110000000     0.191424   
H193     H      0.170630000000     0.047360000000     0.660480000000     0.0415879  
H194     H      0.221250000000     0.128400000000     0.592640000000     0.0249331  
H195     H      0.081640000000     0.070030000000     0.617350000000     0.0267444  
H196     H      0.118200000000     0.099400000000     0.594160000000     0.0419876  
H197     H      0.163600000000     0.120360000000     0.589700000000     0.0421132  
H198     H      0.216050000000     0.068310000000     0.656050000000     0.0413627  
H199     H      0.134700000000     0.015490000000     0.633930000000     0.0327871  
H200     H      0.199610000000     0.152210000000     0.616100000000     0.034658   
H201     H      0.139420000000     0.079720000000     0.561130000000     0.0487865  
H202     H      0.194840000000     0.088030000000     0.689030000000     0.049314   
H203     H      0.082290000000     0.067770000000     0.566100000000     0.0366598  
H204     H      0.252650000000     0.097640000000     0.632820000000     0.0265434  
H205     H      0.178130000000     0.040960000000     0.610380000000     0.0478554  
H206     H      0.156200000000     0.126760000000     0.639820000000     0.0514228  
H207     H      0.251960000000     0.099960000000     0.684070000000     0.0366949  
H208     H      0.113010000000     0.039250000000     0.657440000000     0.0260942  
H209     H      0.106840000000     0.081840000000     0.879550000000     0.0489447  
H210     H      0.248760000000     0.099850000000     0.810230000000     0.0354758  
H211     H      0.142420000000     0.029840000000     0.871080000000     0.0323267  
H212     H      0.197750000000     0.047590000000     0.885240000000     0.0424274  
H213     H      0.228500000000     0.086180000000     0.870680000000     0.0485531  
H214     H      0.137670000000     0.120430000000     0.865270000000     0.0416666  
H215     H      0.127040000000     0.068700000000     0.962250000000     0.0281913  
H216     H      0.208090000000     0.099130000000     0.787960000000     0.0286345  
H217     H      0.184740000000     0.056310000000     0.932190000000     0.0484858  
H218     H      0.150460000000     0.111660000000     0.818250000000     0.0490932  
H219     H      0.162330000000     0.017250000000     0.913000000000     0.0346239  
H220     H      0.193120000000     0.138100000000     0.879090000000     0.029329   
H221     H      0.124990000000     0.100280000000     0.916920000000     0.0420444  
H222     H      0.210310000000     0.067640000000     0.833460000000     0.0424905  
H223     H      0.173030000000     0.150710000000     0.837310000000     0.0293822  
H224     H      0.086440000000     0.068030000000     0.939830000000     0.0358717  
H225     H      0.199690000000     0.347100000000     0.678720000000     0.041624   
H226     H      0.148860000000     0.353590000000     0.533320000000     0.025736   
H227     H      0.151340000000     0.282650000000     0.680710000000     0.0274635  
H228     H      0.139960000000     0.296020000000     0.618530000000     0.0419512  
H229     H      0.134560000000     0.320620000000     0.571530000000     0.0414901  
H230     H      0.194300000000     0.371720000000     0.631770000000     0.0417645  
H231     H      0.230030000000     0.314780000000     0.711070000000     0.036488   
H232     H      0.104360000000     0.352930000000     0.539060000000     0.0365908  
H233     H      0.182540000000     0.293200000000     0.601820000000     0.047071   
H234     H      0.151660000000     0.374540000000     0.648310000000     0.0501142  
H235     H      0.172380000000     0.262990000000     0.648090000000     0.035433   
H236     H      0.183090000000     0.385030000000     0.569510000000     0.0260445  
H237     H      0.226680000000     0.330370000000     0.646970000000     0.0492908  
H238     H      0.107610000000     0.337420000000     0.603210000000     0.0501673  
H239     H      0.162000000000     0.404730000000     0.602030000000     0.034913   
H240     H      0.185530000000     0.314070000000     0.716840000000     0.0259104  
H241     H      0.366330000000     0.066710000000     0.650740000000     0.0422059  
H242     H      0.452380000000     0.068310000000     0.552830000000     0.0287474  
H243     H      0.420660000000     0.135370000000     0.650000000000     0.0260275  
H244     H      0.424100000000     0.118730000000     0.583740000000     0.0426002  
H245     H      0.467960000000     0.101060000000     0.598260000000     0.042249   
H246     H      0.410150000000     0.048950000000     0.665070000000     0.0420689  
H247     H      0.338310000000     0.100280000000     0.683270000000     0.0374414  
H248     H      0.496040000000     0.067540000000     0.565690000000     0.0374379  
H249     H      0.380480000000     0.115270000000     0.581700000000     0.0501851  
H250     H      0.453770000000     0.052440000000     0.667190000000     0.0488935  
H251     H      0.393270000000     0.150960000000     0.617460000000     0.0385201  
H252     H      0.413700000000     0.032400000000     0.598750000000     0.0285797  
H253     H      0.349170000000     0.087340000000     0.618290000000     0.0496914  
H254     H      0.485110000000     0.080410000000     0.630700000000     0.049433   
H255     H      0.441020000000     0.016780000000     0.631320000000     0.0327128  
H256     H      0.381970000000     0.099470000000     0.696100000000     0.0283695  
H257     H      0.389050000000     0.371430000000     0.872310000000     0.0412247  
H258     H      0.434400000000     0.286350000000     0.812730000000     0.0276126  
H259     H      0.438710000000     0.350280000000     0.968830000000     0.0268832  
H260     H      0.451310000000     0.319220000000     0.926230000000     0.0416851  
H261     H      0.446020000000     0.296400000000     0.876790000000     0.0419965  
H262     H      0.383730000000     0.348600000000     0.822880000000     0.0413657  
H263     H      0.419350000000     0.403550000000     0.905920000000     0.0303809  
H264     H      0.415770000000     0.264300000000     0.843120000000     0.0375053  
H265     H      0.477230000000     0.337250000000     0.895260000000     0.0486164  
H266     H      0.357840000000     0.330570000000     0.853840000000     0.0489358  
H267     H      0.482760000000     0.351130000000     0.959570000000     0.0361856  
H268     H      0.396340000000     0.317570000000     0.780250000000     0.0266734  
H269     H      0.431450000000     0.375800000000     0.855840000000     0.0474451  
H270     H      0.403610000000     0.292020000000     0.893220000000     0.0479894  
H271     H      0.352290000000     0.316690000000     0.789530000000     0.0362313  
H272     H      0.400690000000     0.381530000000     0.936340000000     0.0259084  
H273     H      0.467360000000     0.100000000000     0.905250000000     0.0425108  
H274     H      0.385890000000     0.098620000000     0.797400000000     0.0279529  
H275     H      0.410230000000     0.033860000000     0.910700000000     0.0265084  
H276     H      0.408600000000     0.046210000000     0.841880000000     0.0420394  
H277     H      0.367240000000     0.067910000000     0.844590000000     0.0417663  
H278     H      0.426000000000     0.121710000000     0.907930000000     0.0425279  
H279     H      0.492970000000     0.067470000000     0.941870000000     0.0372563  
H280     H      0.341850000000     0.100430000000     0.807710000000     0.036926   
H281     H      0.452400000000     0.048590000000     0.840340000000     0.0506343  
H282     H      0.382200000000     0.119380000000     0.909310000000     0.0488914  
H283     H      0.435830000000     0.015300000000     0.880490000000     0.0360398  
H284     H      0.424600000000     0.133980000000     0.839050000000     0.0295655  
H285     H      0.484640000000     0.078140000000     0.875060000000     0.0503582  
H286     H      0.349970000000     0.089860000000     0.874600000000     0.0493165  
H287     H      0.398940000000     0.152610000000     0.869110000000     0.0366737  
H288     H      0.448940000000     0.069200000000     0.952350000000     0.0278708  
H289     H      0.143460000000     0.295070000000     0.880150000000     0.0414901  
H290     H      0.176160000000     0.385250000000     0.931220000000     0.0290817  
H291     H      0.197270000000     0.315710000000     0.785700000000     0.026693   
H292     H      0.205820000000     0.348050000000     0.826870000000     0.0416556  
H293     H      0.192030000000     0.372880000000     0.869810000000     0.0422677  
H294     H      0.129730000000     0.319910000000     0.923100000000     0.0413797  
H295     H      0.178820000000     0.263430000000     0.852890000000     0.0337802  
H296     H      0.156500000000     0.404530000000     0.896820000000     0.0389058  
H297     H      0.229580000000     0.331390000000     0.861820000000     0.0492858  
H298     H      0.105930000000     0.336470000000     0.888060000000     0.0484708  
H299     H      0.240640000000     0.316420000000     0.799000000000     0.0359824  
H300     H      0.138120000000     0.352330000000     0.964150000000     0.0270229  
H301     H      0.185140000000     0.293790000000     0.899930000000     0.0492754  
H302     H      0.150410000000     0.374120000000     0.849860000000     0.0480578  
H303     H      0.094760000000     0.351530000000     0.950800000000     0.0358925  
H304     H      0.159150000000     0.282790000000     0.818630000000     0.0267381  
H305     H      0.366460000000     0.348460000000     0.652730000000     0.041691   
H306     H      0.001620000000     0.349290000000     0.621430000000     0.0253508  
H307     H      0.365650000000     0.288070000000     0.588990000000     0.0254884  
H308     H      0.422740000000     0.297720000000     0.588080000000     0.0415997  
H309     H      0.467420000000     0.319310000000     0.595330000000     0.0415649  
H310     H      0.411080000000     0.370070000000     0.660000000000     0.041711   
H311     H      0.330390000000     0.316230000000     0.678090000000     0.0360322  
H312     H      0.003620000000     0.351510000000     0.570250000000     0.0364491  
H313     H      0.429320000000     0.291190000000     0.638310000000     0.0481264  
H314     H      0.404730000000     0.376610000000     0.609740000000     0.0507087  
H315     H      0.387590000000     0.264840000000     0.613600000000     0.0343972  
H316     H      0.468220000000     0.379610000000     0.659390000000     0.0243428  
H317     H      0.387100000000     0.328960000000     0.686580000000     0.0499571  
H318     H      0.446880000000     0.338900000000     0.561600000000     0.0502052  
H319     H      0.446420000000     0.402890000000     0.634760000000     0.0350083  
H320     H      0.332320000000     0.318370000000     0.626920000000     0.0248362  
N17      N      0.226720000000     0.128020000000     0.653060000000    -0.173585   
N18      N      0.107610000000     0.039690000000     0.597000000000    -0.174194   
N19      N      0.215300000000     0.128250000000     0.825920000000    -0.17569    
N20      N      0.119940000000     0.039660000000     0.924110000000    -0.175107   
N21      N      0.130530000000     0.380720000000     0.569840000000    -0.173712   
N22      N      0.203890000000     0.287010000000     0.680210000000    -0.174367   
N23      N      0.465470000000     0.039630000000     0.590150000000    -0.173243   
N24      N      0.368910000000     0.128140000000     0.658760000000    -0.172692   
N25      N      0.381590000000     0.288550000000     0.815150000000    -0.17377    
N26      N      0.453490000000     0.379270000000     0.933930000000    -0.174527   
N27      N      0.372280000000     0.128670000000     0.831350000000    -0.1728     
N28      N      0.462550000000     0.039220000000     0.918220000000    -0.17233    
N29      N      0.123900000000     0.380110000000     0.926500000000    -0.172833   
N30      N      0.211440000000     0.287850000000     0.823210000000    -0.172677   
N31      N      0.475610000000     0.379120000000     0.599250000000    -0.174178   
N32      N      0.358470000000     0.288620000000     0.649160000000    -0.174687   
O65      O      0.479180000000     0.418740000000     0.584130000000    -0.378317   
O66      O      0.009090000000     0.391540000000     0.550000000000    -0.375038   
O67      O      0.472110000000     0.499450000000     0.928770000000    -0.371139   
O68      O      0.002460000000     0.027130000000     0.961280000000    -0.371414   
O69      O      0.466880000000     0.418870000000     0.937920000000    -0.382479   
O70      O      0.000070000000     0.391330000000     0.966900000000    -0.375928   
O71      O      0.475470000000     0.499710000000     0.581300000000    -0.374876   
O72      O      0.003340000000     0.027120000000     0.545440000000    -0.373127   
O73      O      0.431120000000     0.457720000000     0.561030000000    -0.35432    
O74      O      0.493350000000     0.460130000000     0.631620000000    -0.52341    
O75      O      0.428810000000     0.461390000000     0.944080000000    -0.520523   
O76      O      0.493000000000     0.456180000000     0.877800000000    -0.353051   
O77      O      0.490130000000     0.436250000000     0.505090000000    -0.499335   
O78      O      0.489350000000     0.482020000000     0.504920000000    -0.632507   
O79      O      0.102860000000     0.000080000000     0.582340000000    -0.381022   
O80      O      0.073940000000     0.027490000000     0.547610000000    -0.370605   
O81      O      0.110640000000     0.419690000000     0.932740000000    -0.373227   
O82      O      0.078150000000     0.391700000000     0.961530000000    -0.371601   
O83      O      0.107030000000     0.000130000000     0.928980000000    -0.37925    
O84      O      0.077430000000     0.027530000000     0.963140000000    -0.376545   
O85      O      0.115330000000     0.420050000000     0.567760000000    -0.371678   
O86      O      0.083060000000     0.392150000000     0.538350000000    -0.370104   
O87      O      0.151470000000     0.465270000000     0.557970000000    -0.52326    
O88      O      0.091050000000     0.454200000000     0.628040000000    -0.358369   
O89      O      0.147740000000     0.460900000000     0.930060000000    -0.335767   
O90      O      0.076790000000     0.458340000000     0.875630000000    -0.528318   
O91      O      0.090540000000     0.482620000000     0.501340000000    -0.63232    
O92      O      0.090630000000     0.437220000000     0.501150000000    -0.496665   
O93      O      0.041510000000     0.482570000000     0.561300000000    -0.497879   
O94      O      0.038770000000     0.435890000000     0.944370000000    -0.629365   
O95      O      0.042390000000     0.436430000000     0.561510000000    -0.631947   
O96      O      0.038190000000     0.482850000000     0.944640000000    -0.493575   
O97      O      0.368180000000     0.248960000000     0.811240000000    -0.376941   
O98      O      0.334990000000     0.276480000000     0.782240000000    -0.375443   
O99      O      0.358990000000     0.168080000000     0.667600000000    -0.37352    
O100     O      0.331390000000     0.140710000000     0.703830000000    -0.373553   
O101     O      0.355080000000     0.249020000000     0.664480000000    -0.381018   
O102     O      0.325570000000     0.276270000000     0.698980000000    -0.375573   
O103     O      0.362840000000     0.168440000000     0.820620000000    -0.375403   
O104     O      0.332440000000     0.140740000000     0.788210000000    -0.372798   
O105     O      0.406750000000     0.206310000000     0.804590000000    -0.340934   
O106     O      0.342360000000     0.212180000000     0.870680000000    -0.527775   
O107     O      0.403170000000     0.210070000000     0.688950000000    -0.528762   
O108     O      0.342040000000     0.207310000000     0.617030000000    -0.341388   
O109     O      0.344830000000     0.231610000000     0.744170000000    -0.496335   
O110     O      0.345520000000     0.185790000000     0.744410000000    -0.632516   
O111     O      0.228180000000     0.167760000000     0.820780000000    -0.3833     
O112     O      0.257570000000     0.140320000000     0.786470000000    -0.377234   
O113     O      0.219190000000     0.247700000000     0.682170000000    -0.379181   
O114     O      0.251670000000     0.275640000000     0.711170000000    -0.370996   
O115     O      0.231590000000     0.167650000000     0.667540000000    -0.376671   
O116     O      0.260750000000     0.140280000000     0.702090000000    -0.370076   
O117     O      0.224590000000     0.248250000000     0.816870000000    -0.37025    
O118     O      0.256970000000     0.276200000000     0.787850000000    -0.370935   
O119     O      0.187700000000     0.206920000000     0.818700000000    -0.516564   
O120     O      0.258020000000     0.209740000000     0.874430000000    -0.359967   
O121     O      0.182800000000     0.202500000000     0.691300000000    -0.344595   
O122     O      0.244100000000     0.213370000000     0.621930000000    -0.533515   
O123     O      0.244350000000     0.185220000000     0.748050000000    -0.632437   
O124     O      0.244300000000     0.230620000000     0.748130000000    -0.497373   
O125     O      0.296730000000     0.185040000000     0.804730000000    -0.500455   
O126     O      0.292480000000     0.231360000000     0.687800000000    -0.631375   
O127     O      0.296180000000     0.231960000000     0.804890000000    -0.630016   
O128     O      0.293370000000     0.185230000000     0.688120000000    -0.497237   
Zr13     Zr     0.492080000000     0.459200000000     0.562330000000     1.37414    
Zr14     Zr     0.489020000000     0.459090000000     0.947560000000     1.37057    
Zr15     Zr     0.091580000000     0.459850000000     0.558610000000     1.37677    
Zr16     Zr     0.087940000000     0.459730000000     0.943710000000     1.37296    
Zr17     Zr     0.040890000000     0.414050000000     0.503170000000     1.37362    
Zr18     Zr     0.039640000000     0.004850000000     0.503170000000     1.37583    
Zr19     Zr     0.345910000000     0.208770000000     0.801700000000     1.37328    
Zr20     Zr     0.342820000000     0.208590000000     0.687000000000     1.37431    
Zr21     Zr     0.246960000000     0.208160000000     0.805600000000     1.37158    
Zr22     Zr     0.243300000000     0.207940000000     0.690720000000     1.37725    
Zr23     Zr     0.294040000000     0.253790000000     0.746080000000     1.3738     
Zr24     Zr     0.295230000000     0.162970000000     0.746270000000     1.37623    
C193     C      0.488190000000     0.897090000000     0.076740000000     0.391463   
C194     C      0.479740000000     0.521300000000     0.436680000000     0.389293   
C195     C      0.474390000000     0.897100000000     0.446470000000     0.392941   
C196     C      0.482140000000     0.521490000000     0.071790000000     0.391223   
C197     C      0.094450000000     0.521800000000     0.074690000000     0.394427   
C198     C      0.103280000000     0.897770000000     0.440440000000     0.38926    
C199     C      0.100410000000     0.521820000000     0.438870000000     0.391462   
C200     C      0.108670000000     0.898250000000     0.058550000000     0.396101   
C201     C      0.360680000000     0.770710000000     0.302650000000     0.393013   
C202     C      0.352370000000     0.646320000000     0.177250000000     0.389626   
C203     C      0.346160000000     0.770690000000     0.171940000000     0.390874   
C204     C      0.355160000000     0.646590000000     0.312790000000     0.387949   
C205     C      0.234740000000     0.646050000000     0.310920000000     0.391844   
C206     C      0.225890000000     0.769500000000     0.191280000000     0.394475   
C207     C      0.240040000000     0.645940000000     0.175190000000     0.394271   
C208     C      0.231950000000     0.770160000000     0.309130000000     0.391431   
C209     C      0.127840000000     0.534650000000     0.131350000000     0.0119592  
C210     C      0.206450000000     0.633040000000     0.118720000000     0.0123685  
C211     C      0.236780000000     0.602960000000     0.157710000000     0.012119   
C212     C      0.174030000000     0.618520000000     0.119140000000    -0.0997925  
C213     C      0.160250000000     0.549180000000     0.131020000000    -0.0996547  
C214     C      0.206060000000     0.586650000000     0.159850000000    -0.0996377  
C215     C      0.155390000000     0.575380000000     0.119980000000     0.0161672  
C216     C      0.178880000000     0.592330000000     0.130160000000     0.0164223  
C217     C      0.097510000000     0.564740000000     0.092430000000     0.012141   
C218     C      0.128200000000     0.581070000000     0.090320000000    -0.0997235  
C219     C      0.113620000000     0.564760000000     0.434930000000     0.0114504  
C220     C      0.221590000000     0.603120000000     0.315210000000     0.011558   
C221     C      0.185420000000     0.634420000000     0.348910000000     0.0122374  
C222     C      0.210140000000     0.585710000000     0.346630000000    -0.101471   
C223     C      0.125160000000     0.582230000000     0.403640000000    -0.101131   
C224     C      0.159470000000     0.614380000000     0.348180000000    -0.102733   
C225     C      0.159860000000     0.576560000000     0.388000000000     0.0170401  
C226     C      0.175460000000     0.591400000000     0.362340000000     0.0174673  
C227     C      0.149960000000     0.533530000000     0.401310000000     0.0108402  
C228     C      0.175850000000     0.553590000000     0.402200000000    -0.101778   
C229     C      0.206090000000     0.811350000000     0.195680000000     0.0128179  
C230     C      0.128290000000     0.856350000000     0.054450000000     0.0131624  
C231     C      0.161840000000     0.886300000000     0.090150000000     0.0126014  
C232     C      0.131390000000     0.837930000000     0.086570000000    -0.100424   
C233     C      0.202910000000     0.829800000000     0.163620000000    -0.10019    
C234     C      0.167670000000     0.869080000000     0.123660000000    -0.100262   
C235     C      0.174080000000     0.824790000000     0.135890000000     0.0161941  
C236     C      0.160230000000     0.842930000000     0.114310000000     0.0169131  
C237     C      0.172550000000     0.781410000000     0.160010000000     0.0108167  
C238     C      0.166600000000     0.798640000000     0.126540000000    -0.0995642  
C239     C      0.364140000000     0.603190000000     0.172230000000     0.0100002  
C240     C      0.470200000000     0.564590000000     0.076710000000     0.0101557  
C241     C      0.437000000000     0.534010000000     0.116110000000     0.0102401  
C242     C      0.464780000000     0.582680000000     0.109090000000    -0.101933   
C243     C      0.369510000000     0.585080000000     0.139880000000    -0.101764   
C244     C      0.432120000000     0.553190000000     0.147060000000    -0.10194    
C245     C      0.402800000000     0.590310000000     0.121050000000     0.0198327  
C246     C      0.431490000000     0.577430000000     0.127870000000     0.020047   
C247     C      0.397320000000     0.633740000000     0.132710000000     0.00866372 
C248     C      0.402150000000     0.614530000000     0.101800000000    -0.101135   
C249     C      0.421280000000     0.884630000000     0.415330000000     0.0121198  
C250     C      0.413820000000     0.783210000000     0.333730000000     0.0102346  
C251     C      0.377270000000     0.813420000000     0.302640000000     0.0117059  
C252     C      0.419250000000     0.798890000000     0.369180000000    -0.0992204  
C253     C      0.415830000000     0.868940000000     0.379890000000    -0.100326   
C254     C      0.381170000000     0.830760000000     0.336380000000    -0.0998061  
C255     C      0.424330000000     0.842640000000     0.386200000000     0.0164119  
C256     C      0.410740000000     0.825190000000     0.362890000000     0.0159982  
C257     C      0.457780000000     0.854400000000     0.446440000000     0.0117791  
C258     C      0.453880000000     0.837070000000     0.412710000000    -0.0999613  
C259     C      0.467530000000     0.564460000000     0.429750000000     0.0097979  
C260     C      0.367260000000     0.603410000000     0.319900000000     0.00918444 
C261     C      0.401210000000     0.634460000000     0.356450000000     0.00880336 
C262     C      0.370960000000     0.586450000000     0.354260000000    -0.100965   
C263     C      0.463700000000     0.581480000000     0.395480000000    -0.101375   
C264     C      0.404210000000     0.616890000000     0.390090000000    -0.100958   
C265     C      0.430870000000     0.576340000000     0.375110000000     0.0190782  
C266     C      0.403750000000     0.591570000000     0.374690000000     0.0185792  
C267     C      0.433560000000     0.533430000000     0.393220000000     0.00976068 
C268     C      0.430440000000     0.551030000000     0.359640000000    -0.101375   
C269     C      0.179050000000     0.781860000000     0.341010000000     0.0117844  
C270     C      0.156300000000     0.886110000000     0.408780000000     0.00945132 
C271     C      0.120420000000     0.855330000000     0.439930000000     0.0115905  
C272     C      0.165250000000     0.869190000000     0.375730000000    -0.0995471  
C273     C      0.170220000000     0.798740000000     0.374130000000    -0.100566   
C274     C      0.127710000000     0.837260000000     0.407970000000    -0.100251   
C275     C      0.176410000000     0.825080000000     0.365360000000     0.0167869  
C276     C      0.159070000000     0.842870000000     0.384540000000     0.0161469  
C277     C      0.214980000000     0.812640000000     0.309880000000     0.0121026  
C278     C      0.207780000000     0.830670000000     0.341920000000    -0.100527   
C279     C      0.347080000000     0.813440000000     0.152900000000     0.0122624  
C280     C      0.486920000000     0.854280000000     0.095440000000     0.0122648  
C281     C      0.454100000000     0.883850000000     0.132640000000     0.0119729  
C282     C      0.456980000000     0.837490000000     0.091320000000    -0.0993221  
C283     C      0.376960000000     0.830290000000     0.156870000000    -0.0993798  
C284     C      0.422350000000     0.868640000000     0.130910000000    -0.0994306  
C285     C      0.405380000000     0.825180000000     0.128490000000     0.0163155  
C286     C      0.428550000000     0.842590000000     0.119690000000     0.0165804  
C287     C      0.379880000000     0.783870000000     0.115690000000     0.0111529  
C288     C      0.411590000000     0.799130000000     0.117230000000    -0.0990742  
H321     H      0.469800000000     0.992180000000     0.005460000000     0.19544    
H322     H      0.038280000000     0.925250000000     0.422490000000     0.18977    
H323     H      0.109920000000     0.992940000000     0.001450000000     0.192119   
H324     H      0.043870000000     0.926160000000     0.083750000000     0.197166   
H325     H      0.493940000000     0.938840000000     0.372330000000     0.132787   
H326     H      0.070360000000     0.972710000000     0.362120000000     0.203274   
H327     H      0.158400000000     0.962800000000     0.455600000000     0.124639   
H328     H      0.163180000000     0.966860000000     0.033790000000     0.181472   
H329     H      0.075500000000     0.966600000000     0.137720000000     0.135894   
H330     H      0.011860000000     0.952940000000     0.145290000000     0.188102   
H331     H      0.425740000000     0.946910000000     0.039350000000     0.135374   
H332     H      0.416020000000     0.965620000000     0.466670000000     0.186366   
H333     H      0.163760000000     0.965790000000     0.081910000000     0.197453   
H334     H      0.475070000000     0.967300000000     0.145740000000     0.19992    
H335     H      0.417480000000     0.958220000000     0.420050000000     0.196843   
H336     H      0.078520000000     0.943380000000     0.361910000000     0.192547   
H337     H      0.365050000000     0.675590000000     0.243850000000     0.191872   
H338     H      0.290930000000     0.741610000000     0.165540000000     0.192581   
H339     H      0.224960000000     0.674900000000     0.248030000000     0.194299   
H340     H      0.296730000000     0.742570000000     0.326800000000     0.197601   
H341     H      0.318350000000     0.710370000000     0.110110000000     0.130153   
H342     H      0.246150000000     0.699690000000     0.105150000000     0.196956   
H343     H      0.175860000000     0.707580000000     0.217390000000     0.126774   
H344     H      0.171940000000     0.705270000000     0.297750000000     0.184312   
H345     H      0.266960000000     0.693730000000     0.380800000000     0.140898   
H346     H      0.343870000000     0.727680000000     0.382780000000     0.195241   
H347     H      0.414150000000     0.709260000000     0.277820000000     0.130284   
H348     H      0.415620000000     0.696960000000     0.200010000000     0.186215   
H349     H      0.179690000000     0.707960000000     0.344880000000     0.197167   
H350     H      0.339170000000     0.698060000000     0.386220000000     0.198087   
H351     H      0.414920000000     0.723730000000     0.178670000000     0.199837   
H352     H      0.242790000000     0.729240000000     0.111110000000     0.191328   
H353     H      0.170630000000     0.547360000000     0.160480000000     0.0416081  
H354     H      0.221250000000     0.628400000000     0.092630000000     0.0249198  
H355     H      0.081640000000     0.570030000000     0.117350000000     0.0267467  
H356     H      0.118200000000     0.599400000000     0.094160000000     0.0419676  
H357     H      0.163600000000     0.620370000000     0.089700000000     0.0420343  
H358     H      0.216050000000     0.568310000000     0.156050000000     0.0413751  
H359     H      0.134700000000     0.515480000000     0.133930000000     0.0328204  
H360     H      0.199610000000     0.652210000000     0.116100000000     0.0346583  
H361     H      0.139420000000     0.579730000000     0.061130000000     0.0487459  
H362     H      0.194840000000     0.588030000000     0.189030000000     0.0493264  
H363     H      0.082290000000     0.567770000000     0.066100000000     0.0366309  
H364     H      0.252650000000     0.597640000000     0.132820000000     0.0265337  
H365     H      0.178130000000     0.540960000000     0.110380000000     0.0478664  
H366     H      0.156200000000     0.626760000000     0.139820000000     0.0513888  
H367     H      0.251960000000     0.599960000000     0.184070000000     0.0367121  
H368     H      0.113010000000     0.539240000000     0.157440000000     0.0261101  
H369     H      0.106840000000     0.581830000000     0.379550000000     0.0489454  
H370     H      0.248760000000     0.599840000000     0.310230000000     0.0354614  
H371     H      0.142420000000     0.529840000000     0.371080000000     0.0323703  
H372     H      0.197750000000     0.547590000000     0.385240000000     0.0424343  
H373     H      0.228500000000     0.586180000000     0.370680000000     0.0485482  
H374     H      0.137670000000     0.620430000000     0.365270000000     0.0416629  
H375     H      0.127040000000     0.568700000000     0.462250000000     0.0281594  
H376     H      0.208090000000     0.599130000000     0.287960000000     0.0286339  
H377     H      0.184740000000     0.556310000000     0.432190000000     0.0484586  
H378     H      0.150460000000     0.611660000000     0.318250000000     0.0491016  
H379     H      0.162330000000     0.517260000000     0.413010000000     0.0346646  
H380     H      0.193120000000     0.638100000000     0.379100000000     0.0292884  
H381     H      0.124990000000     0.600280000000     0.416920000000     0.0419521  
H382     H      0.210310000000     0.567640000000     0.333460000000     0.0425091  
H383     H      0.173030000000     0.650710000000     0.337310000000     0.0293546  
H384     H      0.086440000000     0.568030000000     0.439830000000     0.0358691  
H385     H      0.199690000000     0.847100000000     0.178720000000     0.0416163  
H386     H      0.148860000000     0.853590000000     0.033320000000     0.0256771  
H387     H      0.151340000000     0.782650000000     0.180710000000     0.0274513  
H388     H      0.139950000000     0.796020000000     0.118530000000     0.0419174  
H389     H      0.134560000000     0.820620000000     0.071530000000     0.0414608  
H390     H      0.194300000000     0.871720000000     0.131770000000     0.0417898  
H391     H      0.230030000000     0.814780000000     0.211070000000     0.0365053  
H392     H      0.104360000000     0.852930000000     0.039060000000     0.0365431  
H393     H      0.182540000000     0.793210000000     0.101820000000     0.0470634  
H394     H      0.151660000000     0.874530000000     0.148310000000     0.0501663  
H395     H      0.172380000000     0.762990000000     0.148090000000     0.0354164  
H396     H      0.183090000000     0.885030000000     0.069510000000     0.0260226  
H397     H      0.226680000000     0.830370000000     0.146970000000     0.0492909  
H398     H      0.107610000000     0.837420000000     0.103210000000     0.0501583  
H399     H      0.162000000000     0.904720000000     0.102040000000     0.0349131  
H400     H      0.185530000000     0.814070000000     0.216850000000     0.0259222  
H401     H      0.366330000000     0.566710000000     0.150740000000     0.04222    
H402     H      0.452380000000     0.568310000000     0.052840000000     0.0287118  
H403     H      0.420660000000     0.635370000000     0.150000000000     0.026023   
H404     H      0.424100000000     0.618730000000     0.083740000000     0.0425693  
H405     H      0.467960000000     0.601060000000     0.098270000000     0.0422464  
H406     H      0.410150000000     0.548950000000     0.165070000000     0.0421007  
H407     H      0.338310000000     0.600280000000     0.183270000000     0.037431   
H408     H      0.496040000000     0.567540000000     0.065690000000     0.0374037  
H409     H      0.380480000000     0.615270000000     0.081700000000     0.0501564  
H410     H      0.453770000000     0.552440000000     0.167190000000     0.048926   
H411     H      0.393270000000     0.650960000000     0.117460000000     0.038506   
H412     H      0.413700000000     0.532390000000     0.098750000000     0.0285732  
H413     H      0.349170000000     0.587340000000     0.118290000000     0.04969    
H414     H      0.485110000000     0.580410000000     0.130700000000     0.0494622  
H415     H      0.441020000000     0.516770000000     0.131320000000     0.0327574  
H416     H      0.381970000000     0.599470000000     0.196100000000     0.0283525  
H417     H      0.389050000000     0.871430000000     0.372310000000     0.041209   
H418     H      0.434400000000     0.786350000000     0.312730000000     0.0276008  
H419     H      0.438710000000     0.850270000000     0.468830000000     0.0268377  
H420     H      0.451310000000     0.819220000000     0.426230000000     0.0416534  
H421     H      0.446020000000     0.796390000000     0.376790000000     0.0419696  
H422     H      0.383730000000     0.848610000000     0.322880000000     0.041322   
H423     H      0.419350000000     0.903550000000     0.405920000000     0.030378   
H424     H      0.415770000000     0.764290000000     0.343130000000     0.0374788  
H425     H      0.477230000000     0.837250000000     0.395260000000     0.0486086  
H426     H      0.357840000000     0.830560000000     0.353840000000     0.048895   
H427     H      0.482760000000     0.851130000000     0.459570000000     0.0361576  
H428     H      0.396340000000     0.817560000000     0.280250000000     0.0267093  
H429     H      0.431450000000     0.875800000000     0.355840000000     0.0474332  
H430     H      0.403610000000     0.792020000000     0.393220000000     0.0479546  
H431     H      0.352290000000     0.816690000000     0.289530000000     0.0362609  
H432     H      0.400690000000     0.881530000000     0.436340000000     0.0258817  
H433     H      0.467360000000     0.600010000000     0.405250000000     0.0424344  
H434     H      0.385890000000     0.598620000000     0.297400000000     0.0279589  
H435     H      0.410230000000     0.533860000000     0.410700000000     0.0265158  
H436     H      0.408600000000     0.546210000000     0.341880000000     0.0420459  
H437     H      0.367240000000     0.567910000000     0.344590000000     0.0417778  
H438     H      0.426000000000     0.621710000000     0.407930000000     0.0424969  
H439     H      0.492970000000     0.567470000000     0.441870000000     0.0372382  
H440     H      0.341850000000     0.600420000000     0.307710000000     0.0369241  
H441     H      0.452400000000     0.548590000000     0.340330000000     0.0506295  
H442     H      0.382200000000     0.619380000000     0.409310000000     0.0488588  
H443     H      0.435830000000     0.515300000000     0.380490000000     0.0361107  
H444     H      0.424600000000     0.633970000000     0.339050000000     0.0295964  
H445     H      0.484640000000     0.578140000000     0.375060000000     0.0503439  
H446     H      0.349970000000     0.589860000000     0.374600000000     0.049311   
H447     H      0.398940000000     0.652610000000     0.369110000000     0.0366941  
H448     H      0.448940000000     0.569200000000     0.452350000000     0.0278304  
H449     H      0.143460000000     0.795070000000     0.380150000000     0.0414666  
H450     H      0.176160000000     0.885250000000     0.431220000000     0.0290663  
H451     H      0.197270000000     0.815710000000     0.285700000000     0.0267057  
H452     H      0.205820000000     0.848050000000     0.326870000000     0.0416558  
H453     H      0.192030000000     0.872880000000     0.369810000000     0.04225    
H454     H      0.129730000000     0.819910000000     0.423110000000     0.0413414  
H455     H      0.178820000000     0.763430000000     0.352890000000     0.0337792  
H456     H      0.156490000000     0.904530000000     0.396820000000     0.038928   
H457     H      0.229580000000     0.831390000000     0.361820000000     0.0492719  
H458     H      0.105930000000     0.836470000000     0.388060000000     0.0484671  
H459     H      0.240640000000     0.816410000000     0.299010000000     0.036023   
H460     H      0.138120000000     0.852330000000     0.464150000000     0.0269574  
H461     H      0.185140000000     0.793780000000     0.399930000000     0.0492281  
H462     H      0.150410000000     0.874120000000     0.349860000000     0.0480459  
H463     H      0.094760000000     0.851530000000     0.450800000000     0.0358512  
H464     H      0.159150000000     0.782790000000     0.318630000000     0.0267457  
H465     H      0.366460000000     0.848450000000     0.152740000000     0.0417459  
H466     H      0.001620000000     0.849280000000     0.121420000000     0.0253709  
H467     H      0.365650000000     0.788070000000     0.088990000000     0.0254645  
H468     H      0.422740000000     0.797720000000     0.088080000000     0.0415667  
H469     H      0.467420000000     0.819300000000     0.095330000000     0.0414881  
H470     H      0.411080000000     0.870080000000     0.160000000000     0.0416867  
H471     H      0.330390000000     0.816230000000     0.178100000000     0.0360374  
H472     H      0.003620000000     0.851500000000     0.070250000000     0.0364533  
H473     H      0.429320000000     0.791180000000     0.138310000000     0.0480968  
H474     H      0.404730000000     0.876600000000     0.109730000000     0.0507048  
H475     H      0.387590000000     0.764840000000     0.113600000000     0.0343844  
H476     H      0.468220000000     0.879610000000     0.159390000000     0.0243445  
H477     H      0.387100000000     0.828960000000     0.186580000000     0.0499807  
H478     H      0.446880000000     0.838900000000     0.061600000000     0.0501373  
H479     H      0.446430000000     0.902890000000     0.134760000000     0.0350243  
H480     H      0.332320000000     0.818370000000     0.126920000000     0.0248161  
N33      N      0.226720000000     0.628020000000     0.153070000000    -0.173601   
N34      N      0.107610000000     0.539690000000     0.097000000000    -0.174195   
N35      N      0.215300000000     0.628250000000     0.325920000000    -0.175706   
N36      N      0.119940000000     0.539650000000     0.424110000000    -0.175106   
N37      N      0.130530000000     0.880720000000     0.069840000000    -0.173722   
N38      N      0.203890000000     0.787000000000     0.180210000000    -0.174448   
N39      N      0.465470000000     0.539630000000     0.090150000000    -0.173383   
N40      N      0.368910000000     0.628140000000     0.158760000000    -0.172643   
N41      N      0.381590000000     0.788550000000     0.315150000000    -0.173785   
N42      N      0.453490000000     0.879270000000     0.433930000000    -0.174576   
N43      N      0.372280000000     0.628670000000     0.331360000000    -0.172687   
N44      N      0.462550000000     0.539220000000     0.418220000000    -0.172343   
N45      N      0.123900000000     0.880110000000     0.426500000000    -0.172786   
N46      N      0.211440000000     0.787850000000     0.323210000000    -0.17265    
N47      N      0.475620000000     0.879120000000     0.099250000000    -0.174178   
N48      N      0.358470000000     0.788620000000     0.149160000000    -0.174638   
O129     O      0.479180000000     0.918730000000     0.084140000000    -0.378344   
O130     O      0.009090000000     0.891530000000     0.049990000000    -0.374972   
O131     O      0.472110000000     0.999450000000     0.428770000000    -0.370819   
O132     O      0.002460000000     0.527140000000     0.461280000000    -0.371497   
O133     O      0.466880000000     0.918870000000     0.437920000000    -0.382442   
O134     O      0.000060000000     0.891330000000     0.466900000000    -0.376283   
O135     O      0.475470000000     0.999700000000     0.081300000000    -0.374663   
O136     O      0.003340000000     0.527120000000     0.045440000000    -0.373265   
O137     O      0.431120000000     0.957720000000     0.061030000000    -0.354168   
O138     O      0.493350000000     0.960130000000     0.131620000000    -0.523404   
O139     O      0.428810000000     0.961390000000     0.444080000000    -0.520946   
O140     O      0.493000000000     0.956180000000     0.377800000000    -0.3528     
O141     O      0.490130000000     0.936240000000     0.005090000000    -0.49942    
O142     O      0.489350000000     0.982010000000     0.004920000000    -0.632308   
O143     O      0.102860000000     0.500080000000     0.082340000000    -0.380902   
O144     O      0.073940000000     0.527490000000     0.047610000000    -0.370613   
O145     O      0.110640000000     0.919700000000     0.432740000000    -0.373023   
O146     O      0.078150000000     0.891700000000     0.461530000000    -0.371581   
O147     O      0.107030000000     0.500130000000     0.428980000000    -0.37919    
O148     O      0.077430000000     0.527530000000     0.463140000000    -0.376674   
O149     O      0.115330000000     0.920050000000     0.067760000000    -0.371713   
O150     O      0.083060000000     0.892150000000     0.038350000000    -0.370189   
O151     O      0.151470000000     0.965270000000     0.057970000000    -0.523458   
O152     O      0.091050000000     0.954200000000     0.128040000000    -0.35841    
O153     O      0.147740000000     0.960900000000     0.430060000000    -0.335696   
O154     O      0.076790000000     0.958340000000     0.375630000000    -0.528198   
O155     O      0.090540000000     0.982620000000     0.001340000000    -0.63224    
O156     O      0.090630000000     0.937220000000     0.001150000000    -0.496672   
O157     O      0.041510000000     0.982570000000     0.061300000000    -0.497726   
O158     O      0.038770000000     0.935890000000     0.444370000000    -0.629448   
O159     O      0.042390000000     0.936430000000     0.061510000000    -0.631949   
O160     O      0.038190000000     0.982850000000     0.444640000000    -0.493502   
O161     O      0.368180000000     0.748960000000     0.311240000000    -0.377055   
O162     O      0.334990000000     0.776480000000     0.282250000000    -0.375486   
O163     O      0.358990000000     0.668090000000     0.167600000000    -0.373402   
O164     O      0.331390000000     0.640710000000     0.203830000000    -0.373546   
O165     O      0.355080000000     0.749020000000     0.164480000000    -0.380995   
O166     O      0.325570000000     0.776280000000     0.198980000000    -0.375533   
O167     O      0.362840000000     0.668440000000     0.320620000000    -0.375421   
O168     O      0.332440000000     0.640740000000     0.288210000000    -0.372753   
O169     O      0.406750000000     0.706310000000     0.304590000000    -0.340917   
O170     O      0.342360000000     0.712180000000     0.370680000000    -0.527935   
O171     O      0.403170000000     0.710080000000     0.188950000000    -0.528771   
O172     O      0.342040000000     0.707310000000     0.117030000000    -0.3414     
O173     O      0.344830000000     0.731620000000     0.244170000000    -0.496384   
O174     O      0.345520000000     0.685790000000     0.244410000000    -0.632339   
O175     O      0.228180000000     0.667760000000     0.320780000000    -0.383418   
O176     O      0.257570000000     0.640320000000     0.286470000000    -0.377247   
O177     O      0.219190000000     0.747700000000     0.182180000000    -0.379234   
O178     O      0.251670000000     0.775640000000     0.211170000000    -0.371041   
O179     O      0.231590000000     0.667650000000     0.167540000000    -0.376712   
O180     O      0.260750000000     0.640270000000     0.202080000000    -0.370024   
O181     O      0.224590000000     0.748250000000     0.316870000000    -0.37015    
O182     O      0.256970000000     0.776210000000     0.287860000000    -0.370843   
O183     O      0.187700000000     0.706920000000     0.318700000000    -0.516547   
O184     O      0.258020000000     0.709740000000     0.374430000000    -0.359975   
O185     O      0.182800000000     0.702510000000     0.191300000000    -0.344788   
O186     O      0.244100000000     0.713370000000     0.121930000000    -0.533211   
O187     O      0.244350000000     0.685220000000     0.248050000000    -0.632498   
O188     O      0.244300000000     0.730620000000     0.248130000000    -0.49731    
O189     O      0.296730000000     0.685040000000     0.304730000000    -0.500444   
O190     O      0.292480000000     0.731360000000     0.187800000000    -0.631377   
O191     O      0.296180000000     0.731960000000     0.304890000000    -0.630007   
O192     O      0.293370000000     0.685230000000     0.188120000000    -0.49724    
Zr25     Zr     0.492080000000     0.959200000000     0.062330000000     1.3741     
Zr26     Zr     0.489020000000     0.959080000000     0.447560000000     1.37034    
Zr27     Zr     0.091580000000     0.959850000000     0.058620000000     1.37691    
Zr28     Zr     0.087940000000     0.959740000000     0.443720000000     1.37288    
Zr29     Zr     0.040900000000     0.914050000000     0.003170000000     1.37328    
Zr30     Zr     0.039640000000     0.504850000000     0.003170000000     1.37602    
Zr31     Zr     0.345910000000     0.708780000000     0.301690000000     1.37321    
Zr32     Zr     0.342820000000     0.708590000000     0.187000000000     1.37425    
Zr33     Zr     0.246960000000     0.708150000000     0.305600000000     1.37156    
Zr34     Zr     0.243300000000     0.707940000000     0.190720000000     1.37724    
Zr35     Zr     0.294040000000     0.753790000000     0.246080000000     1.37368    
Zr36     Zr     0.295230000000     0.662970000000     0.246270000000     1.3761     
C289     C      0.488190000000     0.897090000000     0.576740000000     0.391356   
C290     C      0.479740000000     0.521300000000     0.936680000000     0.389292   
C291     C      0.474390000000     0.897110000000     0.946470000000     0.393038   
C292     C      0.482140000000     0.521490000000     0.571790000000     0.391235   
C293     C      0.094450000000     0.521800000000     0.574690000000     0.39442    
C294     C      0.103280000000     0.897770000000     0.940440000000     0.389281   
C295     C      0.100410000000     0.521820000000     0.938870000000     0.391472   
C296     C      0.108670000000     0.898250000000     0.558550000000     0.396095   
C297     C      0.360680000000     0.770710000000     0.802650000000     0.392922   
C298     C      0.352370000000     0.646320000000     0.677240000000     0.389589   
C299     C      0.346160000000     0.770690000000     0.671930000000     0.391084   
C300     C      0.355160000000     0.646590000000     0.812790000000     0.388015   
C301     C      0.234740000000     0.646060000000     0.810920000000     0.39191    
C302     C      0.225890000000     0.769500000000     0.691280000000     0.394307   
C303     C      0.240040000000     0.645940000000     0.675190000000     0.39422    
C304     C      0.231950000000     0.770160000000     0.809130000000     0.391481   
C305     C      0.127840000000     0.534650000000     0.631350000000     0.0119078  
C306     C      0.206450000000     0.633040000000     0.618720000000     0.0123962  
C307     C      0.236780000000     0.602960000000     0.657710000000     0.0121077  
C308     C      0.174030000000     0.618530000000     0.619130000000    -0.0998398  
C309     C      0.160250000000     0.549190000000     0.631020000000    -0.099582   
C310     C      0.206060000000     0.586650000000     0.659850000000    -0.0996165  
C311     C      0.155390000000     0.575390000000     0.619980000000     0.0161741  
C312     C      0.178880000000     0.592320000000     0.630160000000     0.0163783  
C313     C      0.097510000000     0.564750000000     0.592430000000     0.0120399  
C314     C      0.128200000000     0.581070000000     0.590320000000    -0.0996857  
C315     C      0.113620000000     0.564760000000     0.934930000000     0.0114627  
C316     C      0.221590000000     0.603130000000     0.815210000000     0.0116327  
C317     C      0.185420000000     0.634420000000     0.848910000000     0.012189   
C318     C      0.210140000000     0.585720000000     0.846630000000    -0.101422   
C319     C      0.125160000000     0.582240000000     0.903650000000    -0.101208   
C320     C      0.159470000000     0.614380000000     0.848180000000    -0.102719   
C321     C      0.159860000000     0.576560000000     0.888000000000     0.0170602  
C322     C      0.175460000000     0.591400000000     0.862330000000     0.0174672  
C323     C      0.149960000000     0.533530000000     0.901310000000     0.0108426  
C324     C      0.175850000000     0.553590000000     0.902200000000    -0.101791   
C325     C      0.206090000000     0.811360000000     0.695680000000     0.0127951  
C326     C      0.128290000000     0.856350000000     0.554450000000     0.0131553  
C327     C      0.161840000000     0.886300000000     0.590150000000     0.0126224  
C328     C      0.131390000000     0.837930000000     0.586570000000    -0.100428   
C329     C      0.202910000000     0.829800000000     0.663630000000    -0.100174   
C330     C      0.167670000000     0.869080000000     0.623650000000    -0.100213   
C331     C      0.174080000000     0.824790000000     0.635890000000     0.0161857  
C332     C      0.160230000000     0.842930000000     0.614300000000     0.0169243  
C333     C      0.172550000000     0.781410000000     0.660010000000     0.0107617  
C334     C      0.166600000000     0.798640000000     0.626540000000    -0.0995685  
C335     C      0.364140000000     0.603180000000     0.672230000000     0.00992067 
C336     C      0.470200000000     0.564590000000     0.576710000000     0.0101705  
C337     C      0.437000000000     0.534010000000     0.616110000000     0.0102245  
C338     C      0.464780000000     0.582680000000     0.609080000000    -0.101877   
C339     C      0.369510000000     0.585080000000     0.639880000000    -0.101744   
C340     C      0.432120000000     0.553190000000     0.647060000000    -0.101916   
C341     C      0.402800000000     0.590310000000     0.621050000000     0.0198587  
C342     C      0.431480000000     0.577430000000     0.627870000000     0.0199966  
C343     C      0.397320000000     0.633740000000     0.632710000000     0.00863831 
C344     C      0.402150000000     0.614530000000     0.601800000000    -0.101137   
C345     C      0.421280000000     0.884630000000     0.915330000000     0.0120922  
C346     C      0.413820000000     0.783210000000     0.833730000000     0.0102399  
C347     C      0.377270000000     0.813420000000     0.802650000000     0.0117765  
C348     C      0.419250000000     0.798880000000     0.869180000000    -0.0992774  
C349     C      0.415830000000     0.868940000000     0.879890000000    -0.100311   
C350     C      0.381170000000     0.830760000000     0.836390000000    -0.0999242  
C351     C      0.424330000000     0.842640000000     0.886200000000     0.0164013  
C352     C      0.410740000000     0.825190000000     0.862890000000     0.0160294  
C353     C      0.457780000000     0.854400000000     0.946440000000     0.01175    
C354     C      0.453880000000     0.837070000000     0.912710000000    -0.0999475  
C355     C      0.467530000000     0.564460000000     0.929750000000     0.00978755 
C356     C      0.367260000000     0.603420000000     0.819900000000     0.00929091 
C357     C      0.401210000000     0.634450000000     0.856440000000     0.00894585 
C358     C      0.370960000000     0.586450000000     0.854260000000    -0.101009   
C359     C      0.463700000000     0.581480000000     0.895480000000    -0.101365   
C360     C      0.404210000000     0.616900000000     0.890090000000    -0.101048   
C361     C      0.430870000000     0.576350000000     0.875110000000     0.0190777  
C362     C      0.403750000000     0.591570000000     0.874690000000     0.0185918  
C363     C      0.433560000000     0.533430000000     0.893220000000     0.00971118 
C364     C      0.430440000000     0.551040000000     0.859640000000    -0.101349   
C365     C      0.179050000000     0.781860000000     0.841000000000     0.0118651  
C366     C      0.156300000000     0.886110000000     0.908780000000     0.00945634 
C367     C      0.120420000000     0.855330000000     0.939930000000     0.0115851  
C368     C      0.165250000000     0.869190000000     0.875730000000    -0.0995353  
C369     C      0.170220000000     0.798740000000     0.874130000000    -0.100619   
C370     C      0.127710000000     0.837260000000     0.907970000000    -0.10025    
C371     C      0.176410000000     0.825080000000     0.865370000000     0.0167989  
C372     C      0.159080000000     0.842870000000     0.884530000000     0.0161263  
C373     C      0.214980000000     0.812640000000     0.809880000000     0.0120694  
C374     C      0.207780000000     0.830670000000     0.841920000000    -0.100519   
C375     C      0.347080000000     0.813440000000     0.652900000000     0.0122611  
C376     C      0.486920000000     0.854290000000     0.595430000000     0.0123523  
C377     C      0.454100000000     0.883850000000     0.632640000000     0.0119825  
C378     C      0.456980000000     0.837490000000     0.591320000000    -0.0994515  
C379     C      0.376960000000     0.830290000000     0.656870000000    -0.0993574  
C380     C      0.422350000000     0.868630000000     0.630920000000    -0.0994352  
C381     C      0.405380000000     0.825180000000     0.628490000000     0.016297   
C382     C      0.428550000000     0.842590000000     0.619690000000     0.0166592  
C383     C      0.379880000000     0.783870000000     0.615690000000     0.0111637  
C384     C      0.411590000000     0.799130000000     0.617230000000    -0.0990644  
H481     H      0.469800000000     0.992180000000     0.505460000000     0.195692   
H482     H      0.038280000000     0.925250000000     0.922490000000     0.189749   
H483     H      0.109920000000     0.992940000000     0.501450000000     0.192201   
H484     H      0.043870000000     0.926150000000     0.583750000000     0.196977   
H485     H      0.493940000000     0.938850000000     0.872320000000     0.13298    
H486     H      0.070360000000     0.972710000000     0.862120000000     0.203289   
H487     H      0.158400000000     0.962800000000     0.955600000000     0.124716   
H488     H      0.163180000000     0.966860000000     0.533780000000     0.181344   
H489     H      0.075500000000     0.966600000000     0.637720000000     0.135887   
H490     H      0.011860000000     0.952940000000     0.645290000000     0.188104   
H491     H      0.425740000000     0.946920000000     0.539350000000     0.135535   
H492     H      0.416010000000     0.965620000000     0.966680000000     0.186171   
H493     H      0.163760000000     0.965790000000     0.581910000000     0.197424   
H494     H      0.475070000000     0.967300000000     0.645740000000     0.19992    
H495     H      0.417480000000     0.958220000000     0.920050000000     0.196768   
H496     H      0.078520000000     0.943380000000     0.861910000000     0.192563   
H497     H      0.365050000000     0.675600000000     0.743850000000     0.192258   
H498     H      0.290930000000     0.741610000000     0.665540000000     0.192585   
H499     H      0.224960000000     0.674900000000     0.748030000000     0.194301   
H500     H      0.296730000000     0.742580000000     0.826800000000     0.197404   
H501     H      0.318350000000     0.710370000000     0.610110000000     0.13016    
H502     H      0.246150000000     0.699700000000     0.605150000000     0.197047   
H503     H      0.175860000000     0.707580000000     0.717400000000     0.126651   
H504     H      0.171940000000     0.705270000000     0.797750000000     0.184314   
H505     H      0.266960000000     0.693730000000     0.880800000000     0.140718   
H506     H      0.343870000000     0.727680000000     0.882790000000     0.195155   
H507     H      0.414150000000     0.709260000000     0.777820000000     0.130272   
H508     H      0.415620000000     0.696970000000     0.700010000000     0.18645    
H509     H      0.179690000000     0.707970000000     0.844880000000     0.197163   
H510     H      0.339170000000     0.698060000000     0.886230000000     0.19798    
H511     H      0.414920000000     0.723730000000     0.678670000000     0.199912   
H512     H      0.242790000000     0.729240000000     0.611110000000     0.191657   
H513     H      0.170630000000     0.547360000000     0.660480000000     0.0415893  
H514     H      0.221250000000     0.628400000000     0.592640000000     0.0249479  
H515     H      0.081640000000     0.570030000000     0.617350000000     0.02678    
H516     H      0.118200000000     0.599400000000     0.594160000000     0.0419751  
H517     H      0.163600000000     0.620370000000     0.589700000000     0.0420951  
H518     H      0.216050000000     0.568310000000     0.656050000000     0.0413789  
H519     H      0.134700000000     0.515480000000     0.633930000000     0.0328342  
H520     H      0.199610000000     0.652200000000     0.616100000000     0.034667   
H521     H      0.139420000000     0.579730000000     0.561130000000     0.04878    
H522     H      0.194840000000     0.588030000000     0.689030000000     0.0493207  
H523     H      0.082290000000     0.567770000000     0.566100000000     0.0366909  
H524     H      0.252650000000     0.597640000000     0.632820000000     0.0265478  
H525     H      0.178130000000     0.540960000000     0.610380000000     0.0478537  
H526     H      0.156200000000     0.626760000000     0.639820000000     0.0514084  
H527     H      0.251960000000     0.599950000000     0.684070000000     0.0366825  
H528     H      0.113010000000     0.539240000000     0.657440000000     0.0261225  
H529     H      0.106840000000     0.581830000000     0.879550000000     0.0489525  
H530     H      0.248760000000     0.599850000000     0.810230000000     0.0354586  
H531     H      0.142420000000     0.529840000000     0.871080000000     0.0323663  
H532     H      0.197750000000     0.547590000000     0.885240000000     0.0424479  
H533     H      0.228500000000     0.586180000000     0.870680000000     0.0485492  
H534     H      0.137670000000     0.620430000000     0.865270000000     0.0416718  
H535     H      0.127040000000     0.568700000000     0.962250000000     0.0282154  
H536     H      0.208090000000     0.599130000000     0.787960000000     0.0286106  
H537     H      0.184740000000     0.556310000000     0.932190000000     0.0485001  
H538     H      0.150460000000     0.611660000000     0.818250000000     0.0490978  
H539     H      0.162330000000     0.517260000000     0.913000000000     0.0346845  
H540     H      0.193120000000     0.638100000000     0.879090000000     0.029331   
H541     H      0.124990000000     0.600280000000     0.916920000000     0.0420421  
H542     H      0.210310000000     0.567640000000     0.833460000000     0.0424636  
H543     H      0.173030000000     0.650710000000     0.837310000000     0.0293796  
H544     H      0.086440000000     0.568030000000     0.939830000000     0.0358959  
H545     H      0.199690000000     0.847100000000     0.678720000000     0.041623   
H546     H      0.148860000000     0.853590000000     0.533320000000     0.0257362  
H547     H      0.151340000000     0.782650000000     0.680710000000     0.0274637  
H548     H      0.139960000000     0.796020000000     0.618530000000     0.0419532  
H549     H      0.134560000000     0.820620000000     0.571530000000     0.0414873  
H550     H      0.194300000000     0.871720000000     0.631770000000     0.0417772  
H551     H      0.230030000000     0.814780000000     0.711070000000     0.0365201  
H552     H      0.104360000000     0.852930000000     0.539060000000     0.03659    
H553     H      0.182540000000     0.793200000000     0.601820000000     0.0470719  
H554     H      0.151660000000     0.874530000000     0.648310000000     0.0501357  
H555     H      0.172380000000     0.762990000000     0.648090000000     0.0354342  
H556     H      0.183090000000     0.885030000000     0.569510000000     0.0260476  
H557     H      0.226680000000     0.830370000000     0.646970000000     0.0492887  
H558     H      0.107610000000     0.837420000000     0.603210000000     0.050165   
H559     H      0.162000000000     0.904730000000     0.602030000000     0.0349194  
H560     H      0.185530000000     0.814070000000     0.716840000000     0.0259378  
H561     H      0.366330000000     0.566710000000     0.650740000000     0.042225   
H562     H      0.452380000000     0.568310000000     0.552830000000     0.0287459  
H563     H      0.420660000000     0.635380000000     0.650000000000     0.0260295  
H564     H      0.424100000000     0.618730000000     0.583740000000     0.0425956  
H565     H      0.467960000000     0.601060000000     0.598260000000     0.0422497  
H566     H      0.410150000000     0.548950000000     0.665070000000     0.0420968  
H567     H      0.338310000000     0.600280000000     0.683270000000     0.0374517  
H568     H      0.496040000000     0.567540000000     0.565690000000     0.0374254  
H569     H      0.380480000000     0.615270000000     0.581700000000     0.0501817  
H570     H      0.453770000000     0.552440000000     0.667190000000     0.0489203  
H571     H      0.393270000000     0.650950000000     0.617460000000     0.0385238  
H572     H      0.413700000000     0.532400000000     0.598750000000     0.0285996  
H573     H      0.349170000000     0.587350000000     0.618290000000     0.0497038  
H574     H      0.485110000000     0.580410000000     0.630700000000     0.0494392  
H575     H      0.441020000000     0.516770000000     0.631320000000     0.0327649  
H576     H      0.381970000000     0.599470000000     0.696100000000     0.0283788  
H577     H      0.389050000000     0.871430000000     0.872310000000     0.0412152  
H578     H      0.434400000000     0.786350000000     0.812730000000     0.0276011  
H579     H      0.438710000000     0.850280000000     0.968830000000     0.0269116  
H580     H      0.451310000000     0.819220000000     0.926230000000     0.0416782  
H581     H      0.446020000000     0.796390000000     0.876790000000     0.0420013  
H582     H      0.383730000000     0.848600000000     0.822880000000     0.0413735  
H583     H      0.419350000000     0.903550000000     0.905920000000     0.0303963  
H584     H      0.415770000000     0.764300000000     0.843120000000     0.0374969  
H585     H      0.477230000000     0.837250000000     0.895260000000     0.0486115  
H586     H      0.357840000000     0.830560000000     0.853840000000     0.0489434  
H587     H      0.482760000000     0.851130000000     0.959570000000     0.0362149  
H588     H      0.396340000000     0.817560000000     0.780250000000     0.0266885  
H589     H      0.431450000000     0.875800000000     0.855840000000     0.0474262  
H590     H      0.403610000000     0.792020000000     0.893220000000     0.0480076  
H591     H      0.352290000000     0.816690000000     0.789530000000     0.0362399  
H592     H      0.400690000000     0.881530000000     0.936340000000     0.0259236  
H593     H      0.467360000000     0.600010000000     0.905250000000     0.0424502  
H594     H      0.385890000000     0.598620000000     0.797400000000     0.027931   
H595     H      0.410230000000     0.533870000000     0.910700000000     0.0265608  
H596     H      0.408600000000     0.546210000000     0.841880000000     0.0420336  
H597     H      0.367240000000     0.567910000000     0.844590000000     0.0418     
H598     H      0.426000000000     0.621710000000     0.907930000000     0.0425528  
H599     H      0.492970000000     0.567470000000     0.941870000000     0.0372744  
H600     H      0.341850000000     0.600430000000     0.807710000000     0.0369092  
H601     H      0.452400000000     0.548590000000     0.840340000000     0.0506346  
H602     H      0.382200000000     0.619390000000     0.909310000000     0.048905   
H603     H      0.435830000000     0.515300000000     0.880490000000     0.036125   
H604     H      0.424600000000     0.633980000000     0.839050000000     0.0295567  
H605     H      0.484640000000     0.578140000000     0.875060000000     0.0503453  
H606     H      0.349970000000     0.589870000000     0.874600000000     0.0493374  
H607     H      0.398940000000     0.652610000000     0.869110000000     0.0366708  
H608     H      0.448940000000     0.569200000000     0.952350000000     0.0278848  
H609     H      0.143460000000     0.795070000000     0.880150000000     0.0414919  
H610     H      0.176160000000     0.885250000000     0.931220000000     0.0291025  
H611     H      0.197270000000     0.815710000000     0.785700000000     0.026715   
H612     H      0.205820000000     0.848050000000     0.826870000000     0.0416564  
H613     H      0.192030000000     0.872880000000     0.869810000000     0.0422561  
H614     H      0.129730000000     0.819910000000     0.923100000000     0.0413798  
H615     H      0.178820000000     0.763430000000     0.852890000000     0.0337757  
H616     H      0.156500000000     0.904530000000     0.896820000000     0.038926   
H617     H      0.229580000000     0.831390000000     0.861820000000     0.0492837  
H618     H      0.105930000000     0.836470000000     0.888060000000     0.0484723  
H619     H      0.240640000000     0.816420000000     0.799000000000     0.0360163  
H620     H      0.138120000000     0.852330000000     0.964150000000     0.0270261  
H621     H      0.185140000000     0.793790000000     0.899930000000     0.0492793  
H622     H      0.150410000000     0.874120000000     0.849860000000     0.0480426  
H623     H      0.094760000000     0.851530000000     0.950800000000     0.0358961  
H624     H      0.159150000000     0.782780000000     0.818630000000     0.0267253  
H625     H      0.366460000000     0.848450000000     0.652730000000     0.0417457  
H626     H      0.001620000000     0.849280000000     0.621430000000     0.0253397  
H627     H      0.365650000000     0.788060000000     0.588990000000     0.0254847  
H628     H      0.422740000000     0.797720000000     0.588080000000     0.0415877  
H629     H      0.467420000000     0.819310000000     0.595330000000     0.0415665  
H630     H      0.411080000000     0.870080000000     0.660000000000     0.0417009  
H631     H      0.330390000000     0.816230000000     0.678090000000     0.0360389  
H632     H      0.003620000000     0.851510000000     0.570250000000     0.0364626  
H633     H      0.429320000000     0.791180000000     0.638310000000     0.0480999  
H634     H      0.404730000000     0.876610000000     0.609740000000     0.0506931  
H635     H      0.387590000000     0.764840000000     0.613600000000     0.034396   
H636     H      0.468220000000     0.879610000000     0.659390000000     0.0243354  
H637     H      0.387100000000     0.828970000000     0.686580000000     0.0499737  
H638     H      0.446880000000     0.838900000000     0.561600000000     0.0502097  
H639     H      0.446420000000     0.902890000000     0.634760000000     0.0350068  
H640     H      0.332320000000     0.818370000000     0.626920000000     0.0248297  
N49      N      0.226720000000     0.628020000000     0.653060000000    -0.17358    
N50      N      0.107610000000     0.539690000000     0.597000000000    -0.17416    
N51      N      0.215300000000     0.628250000000     0.825920000000    -0.175655   
N52      N      0.119940000000     0.539650000000     0.924110000000    -0.175099   
N53      N      0.130530000000     0.880720000000     0.569840000000    -0.173713   
N54      N      0.203890000000     0.787010000000     0.680210000000    -0.174347   
N55      N      0.465470000000     0.539630000000     0.590150000000    -0.173379   
N56      N      0.368910000000     0.628140000000     0.658760000000    -0.172645   
N57      N      0.381590000000     0.788550000000     0.815150000000    -0.17378    
N58      N      0.453490000000     0.879270000000     0.933930000000    -0.174506   
N59      N      0.372280000000     0.628670000000     0.831350000000    -0.172765   
N60      N      0.462550000000     0.539220000000     0.918220000000    -0.172326   
N61      N      0.123900000000     0.880110000000     0.926500000000    -0.172776   
N62      N      0.211440000000     0.787840000000     0.823210000000    -0.172711   
N63      N      0.475610000000     0.879120000000     0.599250000000    -0.174159   
N64      N      0.358470000000     0.788620000000     0.649160000000    -0.1747     
O193     O      0.479180000000     0.918740000000     0.584130000000    -0.378291   
O194     O      0.009090000000     0.891530000000     0.550000000000    -0.374975   
O195     O      0.472110000000     0.999450000000     0.928770000000    -0.37079    
O196     O      0.002460000000     0.527140000000     0.961280000000    -0.371374   
O197     O      0.466880000000     0.918870000000     0.937920000000    -0.382578   
O198     O      0.000070000000     0.891330000000     0.966900000000    -0.37602    
O199     O      0.475470000000     0.999700000000     0.581300000000    -0.374661   
O200     O      0.003340000000     0.527120000000     0.545440000000    -0.373254   
O201     O      0.431120000000     0.957720000000     0.561030000000    -0.354272   
O202     O      0.493350000000     0.960130000000     0.631620000000    -0.523395   
O203     O      0.428810000000     0.961390000000     0.944080000000    -0.520603   
O204     O      0.493000000000     0.956180000000     0.877800000000    -0.353018   
O205     O      0.490130000000     0.936240000000     0.505090000000    -0.499339   
O206     O      0.489350000000     0.982020000000     0.504920000000    -0.632389   
O207     O      0.102860000000     0.500080000000     0.582340000000    -0.380877   
O208     O      0.073940000000     0.527490000000     0.547610000000    -0.370587   
O209     O      0.110640000000     0.919700000000     0.932740000000    -0.373011   
O210     O      0.078150000000     0.891700000000     0.961530000000    -0.371508   
O211     O      0.107030000000     0.500130000000     0.928980000000    -0.379179   
O212     O      0.077430000000     0.527530000000     0.963140000000    -0.376558   
O213     O      0.115330000000     0.920050000000     0.567760000000    -0.371686   
O214     O      0.083060000000     0.892150000000     0.538350000000    -0.370108   
O215     O      0.151470000000     0.965270000000     0.557970000000    -0.523262   
O216     O      0.091050000000     0.954200000000     0.628040000000    -0.358339   
O217     O      0.147740000000     0.960900000000     0.930060000000    -0.33571    
O218     O      0.076790000000     0.958340000000     0.875630000000    -0.528316   
O219     O      0.090540000000     0.982620000000     0.501340000000    -0.632302   
O220     O      0.090630000000     0.937220000000     0.501150000000    -0.496618   
O221     O      0.041510000000     0.982570000000     0.561300000000    -0.497749   
O222     O      0.038770000000     0.935890000000     0.944370000000    -0.629392   
O223     O      0.042390000000     0.936430000000     0.561510000000    -0.631777   
O224     O      0.038190000000     0.982860000000     0.944640000000    -0.493368   
O225     O      0.368180000000     0.748960000000     0.811240000000    -0.377019   
O226     O      0.334990000000     0.776480000000     0.782240000000    -0.375439   
O227     O      0.358990000000     0.668090000000     0.667600000000    -0.373402   
O228     O      0.331390000000     0.640710000000     0.703830000000    -0.373476   
O229     O      0.355080000000     0.749030000000     0.664480000000    -0.381093   
O230     O      0.325570000000     0.776280000000     0.698980000000    -0.375517   
O231     O      0.362840000000     0.668440000000     0.820620000000    -0.375442   
O232     O      0.332440000000     0.640740000000     0.788210000000    -0.372766   
O233     O      0.406750000000     0.706310000000     0.804590000000    -0.340911   
O234     O      0.342360000000     0.712180000000     0.870680000000    -0.52776    
O235     O      0.403170000000     0.710080000000     0.688950000000    -0.529057   
O236     O      0.342040000000     0.707310000000     0.617030000000    -0.34138    
O237     O      0.344830000000     0.731620000000     0.744170000000    -0.49634    
O238     O      0.345520000000     0.685780000000     0.744410000000    -0.632605   
O239     O      0.228180000000     0.667760000000     0.820780000000    -0.383459   
O240     O      0.257570000000     0.640320000000     0.786470000000    -0.377232   
O241     O      0.219190000000     0.747700000000     0.682170000000    -0.379165   
O242     O      0.251670000000     0.775640000000     0.711170000000    -0.370988   
O243     O      0.231590000000     0.667650000000     0.667540000000    -0.376685   
O244     O      0.260750000000     0.640280000000     0.702090000000    -0.370084   
O245     O      0.224590000000     0.748250000000     0.816870000000    -0.370238   
O246     O      0.256970000000     0.776210000000     0.787850000000    -0.370846   
O247     O      0.187700000000     0.706920000000     0.818700000000    -0.516511   
O248     O      0.258020000000     0.709750000000     0.874430000000    -0.359754   
O249     O      0.182800000000     0.702510000000     0.691300000000    -0.344668   
O250     O      0.244100000000     0.713380000000     0.621930000000    -0.53355    
O251     O      0.244350000000     0.685220000000     0.748050000000    -0.632446   
O252     O      0.244300000000     0.730620000000     0.748130000000    -0.497374   
O253     O      0.296730000000     0.685030000000     0.804730000000    -0.500324   
O254     O      0.292480000000     0.731360000000     0.687800000000    -0.631375   
O255     O      0.296180000000     0.731960000000     0.804890000000    -0.62989    
O256     O      0.293370000000     0.685230000000     0.688120000000    -0.497236   
Zr37     Zr     0.492080000000     0.959200000000     0.562330000000     1.37413    
Zr38     Zr     0.489020000000     0.959080000000     0.947560000000     1.3706     
Zr39     Zr     0.091580000000     0.959850000000     0.558610000000     1.37689    
Zr40     Zr     0.087940000000     0.959740000000     0.943710000000     1.37305    
Zr41     Zr     0.040890000000     0.914050000000     0.503170000000     1.37352    
Zr42     Zr     0.039640000000     0.504850000000     0.503170000000     1.37628    
Zr43     Zr     0.345910000000     0.708780000000     0.801700000000     1.37305    
Zr44     Zr     0.342820000000     0.708590000000     0.687000000000     1.37416    
Zr45     Zr     0.246960000000     0.708160000000     0.805600000000     1.37146    
Zr46     Zr     0.243300000000     0.707940000000     0.690720000000     1.37724    
Zr47     Zr     0.294040000000     0.753790000000     0.746080000000     1.37368    
Zr48     Zr     0.295230000000     0.662970000000     0.746270000000     1.37634    
C385     C      0.988200000000     0.397090000000     0.076740000000     0.391242   
C386     C      0.979740000000     0.021300000000     0.436680000000     0.388888   
C387     C      0.974390000000     0.397100000000     0.446470000000     0.392964   
C388     C      0.982140000000     0.021480000000     0.071790000000     0.390658   
C389     C      0.594450000000     0.021790000000     0.074690000000     0.394506   
C390     C      0.603280000000     0.397770000000     0.440440000000     0.389555   
C391     C      0.600410000000     0.021830000000     0.438870000000     0.391276   
C392     C      0.608670000000     0.398250000000     0.058550000000     0.396083   
C393     C      0.860680000000     0.270710000000     0.302650000000     0.392973   
C394     C      0.852370000000     0.146320000000     0.177250000000     0.389865   
C395     C      0.846160000000     0.270690000000     0.171940000000     0.390989   
C396     C      0.855160000000     0.146580000000     0.312790000000     0.387875   
C397     C      0.734740000000     0.146050000000     0.310920000000     0.391824   
C398     C      0.725890000000     0.269500000000     0.191280000000     0.394521   
C399     C      0.740040000000     0.145940000000     0.175190000000     0.394401   
C400     C      0.731950000000     0.270160000000     0.309130000000     0.391599   
C401     C      0.627840000000     0.034650000000     0.131350000000     0.0119214  
C402     C      0.706450000000     0.133040000000     0.118720000000     0.0124353  
C403     C      0.736780000000     0.102960000000     0.157710000000     0.0121215  
C404     C      0.674030000000     0.118530000000     0.119140000000    -0.0998588  
C405     C      0.660250000000     0.049180000000     0.131020000000    -0.0996891  
C406     C      0.706060000000     0.086650000000     0.159850000000    -0.0996273  
C407     C      0.655390000000     0.075380000000     0.119980000000     0.0161736  
C408     C      0.678880000000     0.092330000000     0.130160000000     0.0163928  
C409     C      0.597510000000     0.064740000000     0.092430000000     0.0121398  
C410     C      0.628200000000     0.081070000000     0.090320000000    -0.0997309  
C411     C      0.613620000000     0.064760000000     0.434930000000     0.0115201  
C412     C      0.721590000000     0.103120000000     0.315210000000     0.0115353  
C413     C      0.685420000000     0.134420000000     0.348910000000     0.0122307  
C414     C      0.710140000000     0.085710000000     0.346630000000    -0.101457   
C415     C      0.625160000000     0.082240000000     0.403640000000    -0.101229   
C416     C      0.659470000000     0.114380000000     0.348180000000    -0.102734   
C417     C      0.659860000000     0.076560000000     0.388000000000     0.0170525  
C418     C      0.675460000000     0.091400000000     0.362340000000     0.0174609  
C419     C      0.649960000000     0.033520000000     0.401310000000     0.0107403  
C420     C      0.675850000000     0.053590000000     0.402200000000    -0.101734   
C421     C      0.706090000000     0.311350000000     0.195680000000     0.012909   
C422     C      0.628300000000     0.356350000000     0.054450000000     0.013202   
C423     C      0.661840000000     0.386300000000     0.090150000000     0.0126492  
C424     C      0.631390000000     0.337930000000     0.086570000000    -0.100461   
C425     C      0.702910000000     0.329800000000     0.163620000000    -0.100262   
C426     C      0.667680000000     0.369080000000     0.123660000000    -0.100323   
C427     C      0.674080000000     0.324800000000     0.135890000000     0.0161513  
C428     C      0.660220000000     0.342930000000     0.114310000000     0.0169569  
C429     C      0.672540000000     0.281410000000     0.160010000000     0.0106625  
C430     C      0.666600000000     0.298640000000     0.126540000000    -0.0994524  
C431     C      0.864140000000     0.103180000000     0.172230000000     0.00991574 
C432     C      0.970200000000     0.064590000000     0.076710000000     0.0101279  
C433     C      0.937000000000     0.034010000000     0.116110000000     0.0101605  
C434     C      0.964780000000     0.082680000000     0.109090000000    -0.101925   
C435     C      0.869510000000     0.085080000000     0.139880000000    -0.101724   
C436     C      0.932120000000     0.053190000000     0.147060000000    -0.101963   
C437     C      0.902800000000     0.090310000000     0.121050000000     0.0198182  
C438     C      0.931490000000     0.077430000000     0.127870000000     0.0200468  
C439     C      0.897320000000     0.133740000000     0.132710000000     0.00867604 
C440     C      0.902150000000     0.114530000000     0.101800000000    -0.10113    
C441     C      0.921280000000     0.384630000000     0.415330000000     0.0120901  
C442     C      0.913820000000     0.283210000000     0.333730000000     0.0102041  
C443     C      0.877270000000     0.313420000000     0.302640000000     0.0117111  
C444     C      0.919250000000     0.298890000000     0.369180000000    -0.0992256  
C445     C      0.915830000000     0.368950000000     0.379890000000    -0.100346   
C446     C      0.881170000000     0.330760000000     0.336380000000    -0.099831   
C447     C      0.924330000000     0.342640000000     0.386200000000     0.0163804  
C448     C      0.910740000000     0.325190000000     0.362890000000     0.0160096  
C449     C      0.957780000000     0.354410000000     0.446440000000     0.0118787  
C450     C      0.953880000000     0.337070000000     0.412710000000    -0.0999855  
C451     C      0.967530000000     0.064460000000     0.429750000000     0.00978582 
C452     C      0.867260000000     0.103420000000     0.319900000000     0.00925248 
C453     C      0.901210000000     0.134450000000     0.356450000000     0.00892234 
C454     C      0.870960000000     0.086450000000     0.354260000000    -0.100969   
C455     C      0.963690000000     0.081480000000     0.395480000000    -0.101359   
C456     C      0.904210000000     0.116890000000     0.390090000000    -0.100982   
C457     C      0.930870000000     0.076340000000     0.375110000000     0.0191099  
C458     C      0.903750000000     0.091560000000     0.374690000000     0.0185436  
C459     C      0.933570000000     0.033430000000     0.393220000000     0.00981907 
C460     C      0.930430000000     0.051030000000     0.359640000000    -0.101417   
C461     C      0.679050000000     0.281860000000     0.341010000000     0.0118146  
C462     C      0.656300000000     0.386110000000     0.408780000000     0.00947097 
C463     C      0.620420000000     0.355330000000     0.439930000000     0.0116423  
C464     C      0.665250000000     0.369190000000     0.375730000000    -0.099519   
C465     C      0.670220000000     0.298740000000     0.374130000000    -0.100613   
C466     C      0.627700000000     0.337260000000     0.407970000000    -0.100287   
C467     C      0.676410000000     0.325080000000     0.365360000000     0.0168263  
C468     C      0.659070000000     0.342860000000     0.384540000000     0.0160877  
C469     C      0.714980000000     0.312640000000     0.309880000000     0.0121566  
C470     C      0.707780000000     0.330670000000     0.341920000000    -0.100606   
C471     C      0.847080000000     0.313440000000     0.152900000000     0.0122227  
C472     C      0.986920000000     0.354290000000     0.095440000000     0.0120304  
C473     C      0.954100000000     0.383860000000     0.132640000000     0.0118041  
C474     C      0.956980000000     0.337490000000     0.091320000000    -0.0992875  
C475     C      0.876960000000     0.330290000000     0.156870000000    -0.0992969  
C476     C      0.922350000000     0.368630000000     0.130910000000    -0.0992711  
C477     C      0.905380000000     0.325180000000     0.128490000000     0.0163152  
C478     C      0.928550000000     0.342580000000     0.119690000000     0.0165408  
C479     C      0.879880000000     0.283870000000     0.115690000000     0.0111715  
C480     C      0.911590000000     0.299130000000     0.117230000000    -0.0991124  
H641     H      0.969800000000     0.492180000000     0.005460000000     0.195379   
H642     H      0.538280000000     0.425250000000     0.422490000000     0.189749   
H643     H      0.609920000000     0.492940000000     0.001450000000     0.192028   
H644     H      0.543860000000     0.426160000000     0.083750000000     0.197186   
H645     H      0.993940000000     0.438840000000     0.372330000000     0.132779   
H646     H      0.570360000000     0.472700000000     0.362120000000     0.203272   
H647     H      0.658400000000     0.462800000000     0.455600000000     0.124615   
H648     H      0.663190000000     0.466860000000     0.033790000000     0.181272   
H649     H      0.575500000000     0.466600000000     0.137720000000     0.135937   
H650     H      0.511860000000     0.452940000000     0.145290000000     0.18798    
H651     H      0.925740000000     0.446920000000     0.039350000000     0.13549    
H652     H      0.916020000000     0.465630000000     0.466670000000     0.186253   
H653     H      0.663770000000     0.465800000000     0.081910000000     0.19722    
H654     H      0.975070000000     0.467300000000     0.145740000000     0.199881   
H655     H      0.917480000000     0.458220000000     0.420050000000     0.196785   
H656     H      0.578520000000     0.443380000000     0.361910000000     0.192799   
H657     H      0.865050000000     0.175600000000     0.243850000000     0.192051   
H658     H      0.790930000000     0.241610000000     0.165540000000     0.192587   
H659     H      0.724960000000     0.174900000000     0.248030000000     0.194509   
H660     H      0.796720000000     0.242580000000     0.326800000000     0.197404   
H661     H      0.818350000000     0.210370000000     0.110110000000     0.130148   
H662     H      0.746150000000     0.199700000000     0.105150000000     0.19721    
H663     H      0.675860000000     0.207580000000     0.217390000000     0.126695   
H664     H      0.671950000000     0.205280000000     0.297750000000     0.184523   
H665     H      0.766960000000     0.193730000000     0.380800000000     0.140913   
H666     H      0.843870000000     0.227680000000     0.382780000000     0.195253   
H667     H      0.914150000000     0.209260000000     0.277820000000     0.130265   
H668     H      0.915620000000     0.196970000000     0.200010000000     0.186575   
H669     H      0.679700000000     0.207970000000     0.344880000000     0.197291   
H670     H      0.839170000000     0.198060000000     0.386220000000     0.198075   
H671     H      0.914930000000     0.223730000000     0.178670000000     0.199585   
H672     H      0.742790000000     0.229240000000     0.111110000000     0.191396   
H673     H      0.670630000000     0.047360000000     0.160480000000     0.0415949  
H674     H      0.721250000000     0.128400000000     0.092630000000     0.0249015  
H675     H      0.581640000000     0.070030000000     0.117350000000     0.0267228  
H676     H      0.618200000000     0.099400000000     0.094160000000     0.0419586  
H677     H      0.663600000000     0.120360000000     0.089700000000     0.0420561  
H678     H      0.716050000000     0.068310000000     0.156050000000     0.0413579  
H679     H      0.634700000000     0.015490000000     0.133930000000     0.0327819  
H680     H      0.699600000000     0.152210000000     0.116100000000     0.0346402  
H681     H      0.639420000000     0.079730000000     0.061130000000     0.0487393  
H682     H      0.694840000000     0.088030000000     0.189030000000     0.0493139  
H683     H      0.582290000000     0.067770000000     0.066100000000     0.0366232  
H684     H      0.752650000000     0.097640000000     0.132820000000     0.0265245  
H685     H      0.678120000000     0.040960000000     0.110380000000     0.047868   
H686     H      0.656200000000     0.126760000000     0.139820000000     0.0514152  
H687     H      0.751960000000     0.099960000000     0.184070000000     0.0366921  
H688     H      0.613010000000     0.039250000000     0.157440000000     0.0260872  
H689     H      0.606840000000     0.081840000000     0.379550000000     0.0489474  
H690     H      0.748760000000     0.099850000000     0.310230000000     0.035473   
H691     H      0.642420000000     0.029840000000     0.371080000000     0.0323577  
H692     H      0.697750000000     0.047590000000     0.385240000000     0.0424034  
H693     H      0.728500000000     0.086180000000     0.370680000000     0.048538   
H694     H      0.637670000000     0.120430000000     0.365270000000     0.0416546  
H695     H      0.627040000000     0.068700000000     0.462250000000     0.0281337  
H696     H      0.708090000000     0.099130000000     0.287960000000     0.0286309  
H697     H      0.684740000000     0.056310000000     0.432190000000     0.0484355  
H698     H      0.650460000000     0.111670000000     0.318250000000     0.0490962  
H699     H      0.662330000000     0.017250000000     0.413010000000     0.0346334  
H700     H      0.693110000000     0.138100000000     0.379100000000     0.0292869  
H701     H      0.624990000000     0.100280000000     0.416920000000     0.0420016  
H702     H      0.710310000000     0.067640000000     0.333460000000     0.0424897  
H703     H      0.673030000000     0.150710000000     0.337310000000     0.0293568  
H704     H      0.586440000000     0.068030000000     0.439830000000     0.0358295  
H705     H      0.699690000000     0.347090000000     0.178720000000     0.0416587  
H706     H      0.648870000000     0.353590000000     0.033320000000     0.0256625  
H707     H      0.651340000000     0.282650000000     0.180710000000     0.0274802  
H708     H      0.639950000000     0.296020000000     0.118530000000     0.0418865  
H709     H      0.634560000000     0.320620000000     0.071530000000     0.041467   
H710     H      0.694300000000     0.371720000000     0.131770000000     0.0418227  
H711     H      0.730030000000     0.314780000000     0.211070000000     0.0364798  
H712     H      0.604360000000     0.352930000000     0.039060000000     0.0365305  
H713     H      0.682540000000     0.293200000000     0.101820000000     0.0470268  
H714     H      0.651660000000     0.374530000000     0.148310000000     0.0501571  
H715     H      0.672380000000     0.262990000000     0.148090000000     0.0354409  
H716     H      0.683090000000     0.385030000000     0.069510000000     0.0260072  
H717     H      0.726680000000     0.330370000000     0.146970000000     0.049307   
H718     H      0.607610000000     0.337420000000     0.103210000000     0.0501578  
H719     H      0.662000000000     0.404730000000     0.102040000000     0.034893   
H720     H      0.685530000000     0.314070000000     0.216850000000     0.0258961  
H721     H      0.866330000000     0.066710000000     0.150740000000     0.0421944  
H722     H      0.952380000000     0.068310000000     0.052840000000     0.028707   
H723     H      0.920660000000     0.135370000000     0.150000000000     0.0260134  
H724     H      0.924100000000     0.118730000000     0.083740000000     0.0425633  
H725     H      0.967960000000     0.101060000000     0.098270000000     0.0422336  
H726     H      0.910160000000     0.048950000000     0.165070000000     0.0421019  
H727     H      0.838310000000     0.100280000000     0.183270000000     0.0374464  
H728     H      0.996040000000     0.067540000000     0.065690000000     0.0373845  
H729     H      0.880480000000     0.115270000000     0.081700000000     0.0501529  
H730     H      0.953770000000     0.052440000000     0.167190000000     0.0488972  
H731     H      0.893270000000     0.150960000000     0.117460000000     0.0385056  
H732     H      0.913700000000     0.032400000000     0.098750000000     0.0285586  
H733     H      0.849170000000     0.087340000000     0.118290000000     0.0496733  
H734     H      0.985110000000     0.080410000000     0.130700000000     0.0494369  
H735     H      0.941020000000     0.016780000000     0.131320000000     0.0326997  
H736     H      0.881970000000     0.099470000000     0.196100000000     0.0283685  
H737     H      0.889050000000     0.371430000000     0.372310000000     0.0412136  
H738     H      0.934400000000     0.286350000000     0.312730000000     0.0275987  
H739     H      0.938710000000     0.350280000000     0.468830000000     0.0268065  
H740     H      0.951310000000     0.319220000000     0.426230000000     0.0416514  
H741     H      0.946020000000     0.296400000000     0.376790000000     0.0419696  
H742     H      0.883730000000     0.348600000000     0.322880000000     0.0413528  
H743     H      0.919350000000     0.403540000000     0.405920000000     0.0303893  
H744     H      0.915770000000     0.264300000000     0.343130000000     0.0374849  
H745     H      0.977230000000     0.337250000000     0.395260000000     0.0485961  
H746     H      0.857830000000     0.330560000000     0.353840000000     0.0488775  
H747     H      0.982760000000     0.351130000000     0.459570000000     0.0360976  
H748     H      0.896340000000     0.317560000000     0.280250000000     0.026699   
H749     H      0.931450000000     0.375800000000     0.355840000000     0.0474397  
H750     H      0.903610000000     0.292020000000     0.393220000000     0.0479589  
H751     H      0.852290000000     0.316690000000     0.289530000000     0.0362546  
H752     H      0.900690000000     0.381530000000     0.436340000000     0.0258814  
H753     H      0.967360000000     0.100000000000     0.405250000000     0.0424489  
H754     H      0.885890000000     0.098620000000     0.297400000000     0.0279281  
H755     H      0.910230000000     0.033860000000     0.410700000000     0.026461   
H756     H      0.908600000000     0.046210000000     0.341880000000     0.0420524  
H757     H      0.867240000000     0.067910000000     0.344590000000     0.0417661  
H758     H      0.926000000000     0.121710000000     0.407930000000     0.0424966  
H759     H      0.992970000000     0.067470000000     0.441870000000     0.0371983  
H760     H      0.841850000000     0.100430000000     0.307710000000     0.0369027  
H761     H      0.952400000000     0.048590000000     0.340330000000     0.0505899  
H762     H      0.882200000000     0.119380000000     0.409310000000     0.048859   
H763     H      0.935830000000     0.015290000000     0.380490000000     0.0360128  
H764     H      0.924600000000     0.133980000000     0.339050000000     0.0295509  
H765     H      0.984650000000     0.078140000000     0.375060000000     0.0502742  
H766     H      0.849970000000     0.089870000000     0.374600000000     0.0493039  
H767     H      0.898940000000     0.152610000000     0.369110000000     0.0366561  
H768     H      0.948940000000     0.069200000000     0.452350000000     0.0278121  
H769     H      0.643460000000     0.295070000000     0.380150000000     0.0414716  
H770     H      0.676160000000     0.385250000000     0.431220000000     0.029056   
H771     H      0.697270000000     0.315710000000     0.285700000000     0.0266884  
H772     H      0.705820000000     0.348050000000     0.326870000000     0.0416677  
H773     H      0.692030000000     0.372880000000     0.369810000000     0.0422344  
H774     H      0.629730000000     0.319910000000     0.423110000000     0.0413438  
H775     H      0.678820000000     0.263430000000     0.352890000000     0.0337609  
H776     H      0.656500000000     0.404530000000     0.396820000000     0.0389053  
H777     H      0.729570000000     0.331390000000     0.361820000000     0.0493071  
H778     H      0.605930000000     0.336470000000     0.388060000000     0.0484845  
H779     H      0.740640000000     0.316420000000     0.299010000000     0.0359812  
H780     H      0.638120000000     0.352330000000     0.464150000000     0.0269435  
H781     H      0.685140000000     0.293790000000     0.399930000000     0.0492471  
H782     H      0.650410000000     0.374120000000     0.349860000000     0.0480284  
H783     H      0.594760000000     0.351520000000     0.450800000000     0.0358161  
H784     H      0.659150000000     0.282790000000     0.318630000000     0.026729   
H785     H      0.866460000000     0.348460000000     0.152740000000     0.0416911  
H786     H      0.501620000000     0.349290000000     0.121420000000     0.0252216  
H787     H      0.865650000000     0.288070000000     0.088990000000     0.0254608  
H788     H      0.922740000000     0.297720000000     0.088080000000     0.0415741  
H789     H      0.967430000000     0.319310000000     0.095330000000     0.0414834  
H790     H      0.911080000000     0.370070000000     0.160000000000     0.0416436  
H791     H      0.830400000000     0.316230000000     0.178100000000     0.036034   
H792     H      0.503620000000     0.351510000000     0.070250000000     0.0363037  
H793     H      0.929320000000     0.291190000000     0.138310000000     0.0481134  
H794     H      0.904730000000     0.376610000000     0.109730000000     0.0506404  
H795     H      0.887590000000     0.264840000000     0.113600000000     0.0343818  
H796     H      0.968220000000     0.379610000000     0.159390000000     0.0243585  
H797     H      0.887100000000     0.328960000000     0.186580000000     0.0499533  
H798     H      0.946880000000     0.338900000000     0.061600000000     0.0501242  
H799     H      0.946430000000     0.402880000000     0.134760000000     0.0350426  
H800     H      0.832320000000     0.318370000000     0.126920000000     0.0248265  
N65      N      0.726720000000     0.128020000000     0.153070000000    -0.17364    
N66      N      0.607610000000     0.039690000000     0.097000000000    -0.174148   
N67      N      0.715300000000     0.128250000000     0.325920000000    -0.1757     
N68      N      0.619940000000     0.039660000000     0.424110000000    -0.175097   
N69      N      0.630530000000     0.380720000000     0.069840000000    -0.173734   
N70      N      0.703890000000     0.287010000000     0.180210000000    -0.174389   
N71      N      0.965470000000     0.039630000000     0.090150000000    -0.173239   
N72      N      0.868910000000     0.128140000000     0.158760000000    -0.172665   
N73      N      0.881590000000     0.288550000000     0.315150000000    -0.173774   
N74      N      0.953500000000     0.379270000000     0.433930000000    -0.174634   
N75      N      0.872280000000     0.128670000000     0.331360000000    -0.172781   
N76      N      0.962560000000     0.039220000000     0.418220000000    -0.172349   
N77      N      0.623900000000     0.380110000000     0.426500000000    -0.172841   
N78      N      0.711440000000     0.287850000000     0.323210000000    -0.172697   
N79      N      0.975610000000     0.379120000000     0.099250000000    -0.174081   
N80      N      0.858470000000     0.288620000000     0.149160000000    -0.174665   
O257     O      0.979190000000     0.418740000000     0.084140000000    -0.378243   
O258     O      0.509090000000     0.391540000000     0.049990000000    -0.375075   
O259     O      0.972110000000     0.499450000000     0.428770000000    -0.371119   
O260     O      0.502450000000     0.027130000000     0.461280000000    -0.371717   
O261     O      0.966880000000     0.418860000000     0.437920000000    -0.382408   
O262     O      0.500060000000     0.391330000000     0.466900000000    -0.376367   
O263     O      0.975470000000     0.499710000000     0.081300000000    -0.374852   
O264     O      0.503340000000     0.027120000000     0.045440000000    -0.373255   
O265     O      0.931120000000     0.457720000000     0.061030000000    -0.354331   
O266     O      0.993350000000     0.460130000000     0.131620000000    -0.523502   
O267     O      0.928810000000     0.461390000000     0.444080000000    -0.520865   
O268     O      0.993000000000     0.456180000000     0.377800000000    -0.352873   
O269     O      0.990130000000     0.436240000000     0.005090000000    -0.499341   
O270     O      0.989360000000     0.482020000000     0.004920000000    -0.632509   
O271     O      0.602860000000     0.000080000000     0.082340000000    -0.38121    
O272     O      0.573940000000     0.027490000000     0.047610000000    -0.370617   
O273     O      0.610640000000     0.419690000000     0.432740000000    -0.373223   
O274     O      0.578150000000     0.391700000000     0.461530000000    -0.371665   
O275     O      0.607030000000     0.000130000000     0.428980000000    -0.379271   
O276     O      0.577430000000     0.027530000000     0.463140000000    -0.376683   
O277     O      0.615330000000     0.420050000000     0.067760000000    -0.371689   
O278     O      0.583060000000     0.392150000000     0.038350000000    -0.370127   
O279     O      0.651470000000     0.465270000000     0.057970000000    -0.523177   
O280     O      0.591040000000     0.454200000000     0.128040000000    -0.358532   
O281     O      0.647740000000     0.460900000000     0.430060000000    -0.335755   
O282     O      0.576790000000     0.458330000000     0.375630000000    -0.528539   
O283     O      0.590540000000     0.482620000000     0.001340000000    -0.63226    
O284     O      0.590630000000     0.437220000000     0.001150000000    -0.496648   
O285     O      0.541510000000     0.482570000000     0.061300000000    -0.497888   
O286     O      0.538780000000     0.435890000000     0.444370000000    -0.629468   
O287     O      0.542390000000     0.436430000000     0.061510000000    -0.631971   
O288     O      0.538190000000     0.482850000000     0.444640000000    -0.493692   
O289     O      0.868180000000     0.248960000000     0.311240000000    -0.376952   
O290     O      0.834990000000     0.276480000000     0.282250000000    -0.375483   
O291     O      0.858990000000     0.168080000000     0.167600000000    -0.373505   
O292     O      0.831390000000     0.140710000000     0.203830000000    -0.373565   
O293     O      0.855080000000     0.249020000000     0.164480000000    -0.381012   
O294     O      0.825570000000     0.276270000000     0.198980000000    -0.37566    
O295     O      0.862840000000     0.168440000000     0.320620000000    -0.375367   
O296     O      0.832440000000     0.140740000000     0.288210000000    -0.372735   
O297     O      0.906750000000     0.206310000000     0.304590000000    -0.340927   
O298     O      0.842360000000     0.212180000000     0.370680000000    -0.527919   
O299     O      0.903170000000     0.210070000000     0.188950000000    -0.5289     
O300     O      0.842040000000     0.207310000000     0.117030000000    -0.341405   
O301     O      0.844830000000     0.231610000000     0.244170000000    -0.496393   
O302     O      0.845520000000     0.185790000000     0.244410000000    -0.632502   
O303     O      0.728180000000     0.167760000000     0.320780000000    -0.38332    
O304     O      0.757570000000     0.140320000000     0.286470000000    -0.377288   
O305     O      0.719190000000     0.247700000000     0.182180000000    -0.379265   
O306     O      0.751660000000     0.275640000000     0.211170000000    -0.371076   
O307     O      0.731590000000     0.167650000000     0.167540000000    -0.376733   
O308     O      0.760750000000     0.140280000000     0.202080000000    -0.370184   
O309     O      0.724590000000     0.248250000000     0.316870000000    -0.370283   
O310     O      0.756970000000     0.276200000000     0.287860000000    -0.370968   
O311     O      0.687700000000     0.206920000000     0.318700000000    -0.51685    
O312     O      0.758020000000     0.209740000000     0.374430000000    -0.359986   
O313     O      0.682800000000     0.202500000000     0.191300000000    -0.344721   
O314     O      0.744100000000     0.213370000000     0.121930000000    -0.533515   
O315     O      0.744340000000     0.185220000000     0.248050000000    -0.632634   
O316     O      0.744300000000     0.230620000000     0.248130000000    -0.497365   
O317     O      0.796720000000     0.185040000000     0.304730000000    -0.500457   
O318     O      0.792480000000     0.231360000000     0.187800000000    -0.631374   
O319     O      0.796170000000     0.231960000000     0.304890000000    -0.629808   
O320     O      0.793370000000     0.185230000000     0.188120000000    -0.497242   
Zr49     Zr     0.992080000000     0.459200000000     0.062330000000     1.37393    
Zr50     Zr     0.989020000000     0.459090000000     0.447560000000     1.37029    
Zr51     Zr     0.591580000000     0.459850000000     0.058620000000     1.37677    
Zr52     Zr     0.587940000000     0.459730000000     0.443720000000     1.37283    
Zr53     Zr     0.540890000000     0.414050000000     0.003170000000     1.37324    
Zr54     Zr     0.539640000000     0.004850000000     0.003170000000     1.37536    
Zr55     Zr     0.845910000000     0.208770000000     0.301690000000     1.37313    
Zr56     Zr     0.842820000000     0.208590000000     0.187000000000     1.37433    
Zr57     Zr     0.746960000000     0.208160000000     0.305600000000     1.37173    
Zr58     Zr     0.743300000000     0.207940000000     0.190720000000     1.37727    
Zr59     Zr     0.794040000000     0.253790000000     0.246080000000     1.37371    
Zr60     Zr     0.795220000000     0.162970000000     0.246270000000     1.37613    
C481     C      0.988190000000     0.397090000000     0.576740000000     0.391416   
C482     C      0.979740000000     0.021300000000     0.936680000000     0.388844   
C483     C      0.974390000000     0.397110000000     0.946470000000     0.392788   
C484     C      0.982140000000     0.021480000000     0.571790000000     0.39066    
C485     C      0.594450000000     0.021800000000     0.574690000000     0.394409   
C486     C      0.603280000000     0.397770000000     0.940440000000     0.389563   
C487     C      0.600410000000     0.021830000000     0.938870000000     0.391288   
C488     C      0.608670000000     0.398250000000     0.558550000000     0.396091   
C489     C      0.860680000000     0.270710000000     0.802650000000     0.392888   
C490     C      0.852370000000     0.146320000000     0.677240000000     0.389834   
C491     C      0.846160000000     0.270690000000     0.671930000000     0.390946   
C492     C      0.855160000000     0.146580000000     0.812790000000     0.387931   
C493     C      0.734740000000     0.146050000000     0.810920000000     0.391824   
C494     C      0.725880000000     0.269500000000     0.691280000000     0.394264   
C495     C      0.740040000000     0.145940000000     0.675190000000     0.394227   
C496     C      0.731950000000     0.270160000000     0.809130000000     0.391501   
C497     C      0.627840000000     0.034650000000     0.631350000000     0.0119458  
C498     C      0.706450000000     0.133040000000     0.618720000000     0.0124551  
C499     C      0.736780000000     0.102960000000     0.657710000000     0.0120891  
C500     C      0.674030000000     0.118530000000     0.619130000000    -0.0998893  
C501     C      0.660250000000     0.049180000000     0.631020000000    -0.0997011  
C502     C      0.706060000000     0.086650000000     0.659850000000    -0.0996198  
C503     C      0.655390000000     0.075380000000     0.619980000000     0.0161861  
C504     C      0.678880000000     0.092330000000     0.630160000000     0.016399   
C505     C      0.597510000000     0.064740000000     0.592430000000     0.0121456  
C506     C      0.628200000000     0.081070000000     0.590320000000    -0.0997423  
C507     C      0.613620000000     0.064760000000     0.934930000000     0.011534   
C508     C      0.721590000000     0.103120000000     0.815210000000     0.011507   
C509     C      0.685420000000     0.134420000000     0.848910000000     0.0121969  
C510     C      0.710140000000     0.085710000000     0.846630000000    -0.101441   
C511     C      0.625160000000     0.082240000000     0.903650000000    -0.101225   
C512     C      0.659470000000     0.114380000000     0.848180000000    -0.102694   
C513     C      0.659860000000     0.076560000000     0.888000000000     0.0170755  
C514     C      0.675460000000     0.091390000000     0.862330000000     0.0174327  
C515     C      0.649960000000     0.033530000000     0.901310000000     0.0108487  
C516     C      0.675850000000     0.053590000000     0.902200000000    -0.101794   
C517     C      0.706090000000     0.311350000000     0.695680000000     0.0128909  
C518     C      0.628290000000     0.356350000000     0.554450000000     0.0131613  
C519     C      0.661840000000     0.386300000000     0.590150000000     0.012616   
C520     C      0.631390000000     0.337930000000     0.586570000000    -0.100447   
C521     C      0.702910000000     0.329800000000     0.663630000000    -0.100179   
C522     C      0.667670000000     0.369080000000     0.623650000000    -0.1002     
C523     C      0.674080000000     0.324800000000     0.635890000000     0.0161215  
C524     C      0.660220000000     0.342930000000     0.614300000000     0.0169634  
C525     C      0.672540000000     0.281410000000     0.660010000000     0.0106541  
C526     C      0.666600000000     0.298640000000     0.626540000000    -0.0994404  
C527     C      0.864140000000     0.103180000000     0.672230000000     0.00996501 
C528     C      0.970200000000     0.064590000000     0.576710000000     0.0101442  
C529     C      0.937000000000     0.034010000000     0.616110000000     0.0101363  
C530     C      0.964780000000     0.082680000000     0.609080000000    -0.101878   
C531     C      0.869510000000     0.085080000000     0.639880000000    -0.101777   
C532     C      0.932120000000     0.053190000000     0.647060000000    -0.101893   
C533     C      0.902790000000     0.090310000000     0.621050000000     0.0198891  
C534     C      0.931490000000     0.077430000000     0.627870000000     0.0199913  
C535     C      0.897320000000     0.133740000000     0.632710000000     0.00868866 
C536     C      0.902150000000     0.114530000000     0.601800000000    -0.101167   
C537     C      0.921270000000     0.384630000000     0.915330000000     0.0120009  
C538     C      0.913820000000     0.283210000000     0.833730000000     0.0101982  
C539     C      0.877270000000     0.313420000000     0.802650000000     0.0117758  
C540     C      0.919250000000     0.298890000000     0.869180000000    -0.0992366  
C541     C      0.915820000000     0.368950000000     0.879890000000    -0.100341   
C542     C      0.881170000000     0.330760000000     0.836390000000    -0.0998699  
C543     C      0.924330000000     0.342640000000     0.886200000000     0.0163856  
C544     C      0.910740000000     0.325190000000     0.862890000000     0.0160395  
C545     C      0.957780000000     0.354410000000     0.946440000000     0.0118751  
C546     C      0.953880000000     0.337070000000     0.912710000000    -0.100035   
C547     C      0.967530000000     0.064460000000     0.929750000000     0.00975437 
C548     C      0.867260000000     0.103410000000     0.819900000000     0.00919503 
C549     C      0.901210000000     0.134450000000     0.856440000000     0.00891873 
C550     C      0.870960000000     0.086450000000     0.854260000000    -0.100955   
C551     C      0.963690000000     0.081480000000     0.895480000000    -0.101351   
C552     C      0.904210000000     0.116890000000     0.890090000000    -0.100986   
C553     C      0.930870000000     0.076340000000     0.875110000000     0.0191235  
C554     C      0.903750000000     0.091560000000     0.874690000000     0.0185523  
C555     C      0.933570000000     0.033430000000     0.893220000000     0.00983399 
C556     C      0.930430000000     0.051030000000     0.859640000000    -0.101463   
C557     C      0.679050000000     0.281860000000     0.841000000000     0.0118157  
C558     C      0.656300000000     0.386110000000     0.908780000000     0.0095122  
C559     C      0.620420000000     0.355330000000     0.939930000000     0.0116195  
C560     C      0.665250000000     0.369200000000     0.875730000000    -0.0995834  
C561     C      0.670220000000     0.298740000000     0.874130000000    -0.10061    
C562     C      0.627700000000     0.337260000000     0.907970000000    -0.100302   
C563     C      0.676410000000     0.325080000000     0.865370000000     0.0168158  
C564     C      0.659070000000     0.342870000000     0.884530000000     0.0161038  
C565     C      0.714980000000     0.312640000000     0.809880000000     0.0121608  
C566     C      0.707780000000     0.330670000000     0.841920000000    -0.100601   
C567     C      0.847080000000     0.313440000000     0.652900000000     0.0122323  
C568     C      0.986920000000     0.354290000000     0.595430000000     0.0120827  
C569     C      0.954100000000     0.383860000000     0.632640000000     0.0119277  
C570     C      0.956980000000     0.337490000000     0.591320000000    -0.099352   
C571     C      0.876960000000     0.330290000000     0.656870000000    -0.0992871  
C572     C      0.922350000000     0.368640000000     0.630920000000    -0.0994323  
C573     C      0.905380000000     0.325180000000     0.628490000000     0.0162988  
C574     C      0.928550000000     0.342590000000     0.619690000000     0.0165953  
C575     C      0.879880000000     0.283870000000     0.615690000000     0.0111686  
C576     C      0.911590000000     0.299130000000     0.617230000000    -0.0991037  
H801     H      0.969800000000     0.492180000000     0.505460000000     0.195622   
H802     H      0.538280000000     0.425250000000     0.922490000000     0.189721   
H803     H      0.609920000000     0.492940000000     0.501450000000     0.192107   
H804     H      0.543860000000     0.426160000000     0.583750000000     0.197189   
H805     H      0.993940000000     0.438850000000     0.872320000000     0.132976   
H806     H      0.570360000000     0.472710000000     0.862120000000     0.20322    
H807     H      0.658390000000     0.462800000000     0.955600000000     0.124742   
H808     H      0.663180000000     0.466860000000     0.533780000000     0.181303   
H809     H      0.575490000000     0.466600000000     0.637720000000     0.135831   
H810     H      0.511860000000     0.452940000000     0.645290000000     0.187979   
H811     H      0.925740000000     0.446920000000     0.539350000000     0.135539   
H812     H      0.916010000000     0.465630000000     0.966680000000     0.186042   
H813     H      0.663760000000     0.465800000000     0.581910000000     0.197357   
H814     H      0.975070000000     0.467300000000     0.645740000000     0.199882   
H815     H      0.917480000000     0.458220000000     0.920050000000     0.196712   
H816     H      0.578520000000     0.443380000000     0.861910000000     0.192525   
H817     H      0.865050000000     0.175600000000     0.743850000000     0.192047   
H818     H      0.790930000000     0.241610000000     0.665540000000     0.192597   
H819     H      0.724960000000     0.174900000000     0.748030000000     0.194511   
H820     H      0.796720000000     0.242570000000     0.826800000000     0.197603   
H821     H      0.818350000000     0.210370000000     0.610110000000     0.130162   
H822     H      0.746150000000     0.199700000000     0.605150000000     0.197231   
H823     H      0.675860000000     0.207580000000     0.717400000000     0.126588   
H824     H      0.671940000000     0.205280000000     0.797750000000     0.184347   
H825     H      0.766960000000     0.193730000000     0.880800000000     0.14093    
H826     H      0.843870000000     0.227680000000     0.882790000000     0.195156   
H827     H      0.914150000000     0.209260000000     0.777820000000     0.130286   
H828     H      0.915620000000     0.196960000000     0.700010000000     0.186341   
H829     H      0.679690000000     0.207970000000     0.844880000000     0.197172   
H830     H      0.839170000000     0.198060000000     0.886230000000     0.197965   
H831     H      0.914930000000     0.223730000000     0.678670000000     0.199527   
H832     H      0.742790000000     0.229240000000     0.611110000000     0.191425   
H833     H      0.670630000000     0.047360000000     0.660480000000     0.0415988  
H834     H      0.721250000000     0.128400000000     0.592640000000     0.0249321  
H835     H      0.581640000000     0.070030000000     0.617350000000     0.0267258  
H836     H      0.618200000000     0.099400000000     0.594160000000     0.0419805  
H837     H      0.663600000000     0.120360000000     0.589700000000     0.0421092  
H838     H      0.716050000000     0.068310000000     0.656050000000     0.0413626  
H839     H      0.634700000000     0.015490000000     0.633930000000     0.0327789  
H840     H      0.699600000000     0.152210000000     0.616100000000     0.0346495  
H841     H      0.639420000000     0.079720000000     0.561130000000     0.0487858  
H842     H      0.694840000000     0.088030000000     0.689030000000     0.0493105  
H843     H      0.582290000000     0.067770000000     0.566100000000     0.0366456  
H844     H      0.752650000000     0.097640000000     0.632820000000     0.0265441  
H845     H      0.678120000000     0.040960000000     0.610380000000     0.0478873  
H846     H      0.656200000000     0.126760000000     0.639820000000     0.0514152  
H847     H      0.751960000000     0.099960000000     0.684070000000     0.0366953  
H848     H      0.613010000000     0.039250000000     0.657440000000     0.0260817  
H849     H      0.606840000000     0.081840000000     0.879550000000     0.0489318  
H850     H      0.748750000000     0.099850000000     0.810230000000     0.0354856  
H851     H      0.642420000000     0.029840000000     0.871080000000     0.0323224  
H852     H      0.697750000000     0.047590000000     0.885240000000     0.0424284  
H853     H      0.728500000000     0.086180000000     0.870680000000     0.0485526  
H854     H      0.637670000000     0.120430000000     0.865270000000     0.0416576  
H855     H      0.627040000000     0.068700000000     0.962250000000     0.0281893  
H856     H      0.708090000000     0.099130000000     0.787960000000     0.0286376  
H857     H      0.684740000000     0.056310000000     0.932190000000     0.0484871  
H858     H      0.650460000000     0.111660000000     0.818250000000     0.049085   
H859     H      0.662330000000     0.017250000000     0.913000000000     0.0346254  
H860     H      0.693110000000     0.138100000000     0.879090000000     0.0293246  
H861     H      0.624990000000     0.100280000000     0.916920000000     0.0420369  
H862     H      0.710310000000     0.067640000000     0.833460000000     0.0424878  
H863     H      0.673030000000     0.150710000000     0.837310000000     0.0293761  
H864     H      0.586440000000     0.068030000000     0.939830000000     0.0358568  
H865     H      0.699690000000     0.347100000000     0.678720000000     0.0416197  
H866     H      0.648860000000     0.353590000000     0.533320000000     0.0257345  
H867     H      0.651340000000     0.282650000000     0.680710000000     0.0274839  
H868     H      0.639950000000     0.296020000000     0.618530000000     0.041897   
H869     H      0.634560000000     0.320620000000     0.571530000000     0.0414914  
H870     H      0.694300000000     0.371720000000     0.631770000000     0.041768   
H871     H      0.730030000000     0.314780000000     0.711070000000     0.0364855  
H872     H      0.604360000000     0.352930000000     0.539060000000     0.0365846  
H873     H      0.682540000000     0.293200000000     0.601820000000     0.0470491  
H874     H      0.651660000000     0.374540000000     0.648310000000     0.0501123  
H875     H      0.672380000000     0.262990000000     0.648090000000     0.0354579  
H876     H      0.683090000000     0.385030000000     0.569510000000     0.0260443  
H877     H      0.726680000000     0.330370000000     0.646970000000     0.0492899  
H878     H      0.607610000000     0.337420000000     0.603210000000     0.0501629  
H879     H      0.662000000000     0.404730000000     0.602030000000     0.0349099  
H880     H      0.685530000000     0.314070000000     0.716840000000     0.0259063  
H881     H      0.866330000000     0.066710000000     0.650740000000     0.0422124  
H882     H      0.952380000000     0.068310000000     0.552830000000     0.028739   
H883     H      0.920660000000     0.135370000000     0.650000000000     0.0260195  
H884     H      0.924100000000     0.118730000000     0.583740000000     0.0425977  
H885     H      0.967960000000     0.101060000000     0.598260000000     0.0422391  
H886     H      0.910150000000     0.048950000000     0.665070000000     0.0420678  
H887     H      0.838300000000     0.100280000000     0.683270000000     0.0374327  
H888     H      0.996040000000     0.067540000000     0.565690000000     0.037406   
H889     H      0.880480000000     0.115270000000     0.581700000000     0.0501866  
H890     H      0.953770000000     0.052440000000     0.667190000000     0.0488834  
H891     H      0.893270000000     0.150960000000     0.617460000000     0.0385161  
H892     H      0.913700000000     0.032400000000     0.598750000000     0.0285806  
H893     H      0.849170000000     0.087340000000     0.618290000000     0.0496972  
H894     H      0.985110000000     0.080410000000     0.630700000000     0.0494159  
H895     H      0.941020000000     0.016780000000     0.631320000000     0.0327096  
H896     H      0.881970000000     0.099470000000     0.696100000000     0.0283607  
H897     H      0.889050000000     0.371430000000     0.872310000000     0.0412485  
H898     H      0.934400000000     0.286350000000     0.812730000000     0.0276038  
H899     H      0.938710000000     0.350280000000     0.968830000000     0.0268711  
H900     H      0.951310000000     0.319220000000     0.926230000000     0.0416913  
H901     H      0.946020000000     0.296400000000     0.876790000000     0.0419836  
H902     H      0.883730000000     0.348600000000     0.822880000000     0.0413495  
H903     H      0.919350000000     0.403550000000     0.905920000000     0.0304218  
H904     H      0.915770000000     0.264300000000     0.843120000000     0.0375011  
H905     H      0.977220000000     0.337250000000     0.895260000000     0.0486362  
H906     H      0.857830000000     0.330570000000     0.853840000000     0.0489009  
H907     H      0.982760000000     0.351130000000     0.959570000000     0.0361508  
H908     H      0.896340000000     0.317570000000     0.780250000000     0.0266738  
H909     H      0.931450000000     0.375800000000     0.855840000000     0.0474245  
H910     H      0.903610000000     0.292020000000     0.893220000000     0.0479864  
H911     H      0.852290000000     0.316690000000     0.789530000000     0.0362364  
H912     H      0.900690000000     0.381530000000     0.936340000000     0.0259449  
H913     H      0.967360000000     0.100000000000     0.905250000000     0.0424669  
H914     H      0.885890000000     0.098620000000     0.797400000000     0.0279516  
H915     H      0.910230000000     0.033860000000     0.910700000000     0.0264921  
H916     H      0.908600000000     0.046210000000     0.841880000000     0.0420666  
H917     H      0.867240000000     0.067910000000     0.844590000000     0.0417669  
H918     H      0.926000000000     0.121710000000     0.907930000000     0.0425238  
H919     H      0.992970000000     0.067470000000     0.941870000000     0.0372358  
H920     H      0.841850000000     0.100430000000     0.807710000000     0.0369271  
H921     H      0.952400000000     0.048590000000     0.840340000000     0.050614   
H922     H      0.882200000000     0.119380000000     0.909310000000     0.0488912  
H923     H      0.935830000000     0.015300000000     0.880490000000     0.0360158  
H924     H      0.924600000000     0.133980000000     0.839050000000     0.029559   
H925     H      0.984650000000     0.078140000000     0.875060000000     0.0502728  
H926     H      0.849970000000     0.089860000000     0.874600000000     0.049318   
H927     H      0.898940000000     0.152610000000     0.869110000000     0.0366706  
H928     H      0.948940000000     0.069200000000     0.952350000000     0.0278754  
H929     H      0.643460000000     0.295070000000     0.880150000000     0.0414833  
H930     H      0.676160000000     0.385250000000     0.931220000000     0.0290864  
H931     H      0.697270000000     0.315710000000     0.785700000000     0.0266863  
H932     H      0.705820000000     0.348050000000     0.826870000000     0.0416677  
H933     H      0.692030000000     0.372880000000     0.869810000000     0.0422677  
H934     H      0.629730000000     0.319910000000     0.923100000000     0.0413872  
H935     H      0.678820000000     0.263430000000     0.852890000000     0.0337754  
H936     H      0.656490000000     0.404530000000     0.896820000000     0.0389158  
H937     H      0.729570000000     0.331390000000     0.861820000000     0.0493197  
H938     H      0.605930000000     0.336470000000     0.888060000000     0.0484919  
H939     H      0.740640000000     0.316420000000     0.799000000000     0.0359777  
H940     H      0.638120000000     0.352330000000     0.964150000000     0.0270158  
H941     H      0.685140000000     0.293790000000     0.899930000000     0.0492739  
H942     H      0.650410000000     0.374120000000     0.849860000000     0.0480519  
H943     H      0.594760000000     0.351530000000     0.950800000000     0.0358772  
H944     H      0.659150000000     0.282790000000     0.818630000000     0.0267305  
H945     H      0.866460000000     0.348460000000     0.652730000000     0.0416924  
H946     H      0.501620000000     0.349290000000     0.621430000000     0.0252229  
H947     H      0.865650000000     0.288070000000     0.588990000000     0.025488   
H948     H      0.922740000000     0.297720000000     0.588080000000     0.0415949  
H949     H      0.967420000000     0.319310000000     0.595330000000     0.0415243  
H950     H      0.911080000000     0.370070000000     0.660000000000     0.0417047  
H951     H      0.830390000000     0.316230000000     0.678090000000     0.0360325  
H952     H      0.503620000000     0.351510000000     0.570250000000     0.0363309  
H953     H      0.929320000000     0.291190000000     0.638310000000     0.0481191  
H954     H      0.904730000000     0.376610000000     0.609740000000     0.0507039  
H955     H      0.887590000000     0.264840000000     0.613600000000     0.0343968  
H956     H      0.968220000000     0.379610000000     0.659390000000     0.0243286  
H957     H      0.887100000000     0.328960000000     0.686580000000     0.0499553  
H958     H      0.946880000000     0.338900000000     0.561600000000     0.0501762  
H959     H      0.946430000000     0.402890000000     0.634760000000     0.0350074  
H960     H      0.832320000000     0.318370000000     0.626920000000     0.0248372  
N81      N      0.726720000000     0.128020000000     0.653060000000    -0.173588   
N82      N      0.607610000000     0.039690000000     0.597000000000    -0.1742     
N83      N      0.715300000000     0.128250000000     0.825920000000    -0.175688   
N84      N      0.619940000000     0.039660000000     0.924110000000    -0.175109   
N85      N      0.630530000000     0.380720000000     0.569840000000    -0.173714   
N86      N      0.703890000000     0.287010000000     0.680210000000    -0.174384   
N87      N      0.965470000000     0.039630000000     0.590150000000    -0.173233   
N88      N      0.868910000000     0.128140000000     0.658760000000    -0.172695   
N89      N      0.881590000000     0.288550000000     0.815150000000    -0.173767   
N90      N      0.953500000000     0.379270000000     0.933930000000    -0.174508   
N91      N      0.872280000000     0.128670000000     0.831350000000    -0.172796   
N92      N      0.962550000000     0.039220000000     0.918220000000    -0.172306   
N93      N      0.623900000000     0.380110000000     0.926500000000    -0.172837   
N94      N      0.711440000000     0.287850000000     0.823210000000    -0.172681   
N95      N      0.975610000000     0.379120000000     0.599250000000    -0.174157   
N96      N      0.858470000000     0.288620000000     0.649160000000    -0.174687   
O321     O      0.979190000000     0.418740000000     0.584130000000    -0.378359   
O322     O      0.509090000000     0.391540000000     0.550000000000    -0.375124   
O323     O      0.972110000000     0.499450000000     0.928770000000    -0.371091   
O324     O      0.502450000000     0.027130000000     0.961280000000    -0.371589   
O325     O      0.966880000000     0.418870000000     0.937920000000    -0.382419   
O326     O      0.500060000000     0.391330000000     0.966900000000    -0.376154   
O327     O      0.975470000000     0.499710000000     0.581300000000    -0.374863   
O328     O      0.503340000000     0.027120000000     0.545440000000    -0.373234   
O329     O      0.931120000000     0.457720000000     0.561030000000    -0.354317   
O330     O      0.993350000000     0.460130000000     0.631620000000    -0.523516   
O331     O      0.928810000000     0.461390000000     0.944080000000    -0.520525   
O332     O      0.993000000000     0.456180000000     0.877800000000    -0.353076   
O333     O      0.990130000000     0.436250000000     0.505090000000    -0.499367   
O334     O      0.989350000000     0.482020000000     0.504920000000    -0.632548   
O335     O      0.602860000000     0.000080000000     0.582340000000    -0.381024   
O336     O      0.573940000000     0.027490000000     0.547610000000    -0.370606   
O337     O      0.610640000000     0.419690000000     0.932740000000    -0.373215   
O338     O      0.578150000000     0.391700000000     0.961530000000    -0.371554   
O339     O      0.607030000000     0.000130000000     0.928980000000    -0.379257   
O340     O      0.577430000000     0.027530000000     0.963140000000    -0.376546   
O341     O      0.615330000000     0.420050000000     0.567760000000    -0.371677   
O342     O      0.583060000000     0.392150000000     0.538350000000    -0.370099   
O343     O      0.651470000000     0.465270000000     0.557970000000    -0.523263   
O344     O      0.591040000000     0.454200000000     0.628040000000    -0.358379   
O345     O      0.647740000000     0.460900000000     0.930060000000    -0.33582    
O346     O      0.576790000000     0.458340000000     0.875630000000    -0.528321   
O347     O      0.590540000000     0.482620000000     0.501340000000    -0.632321   
O348     O      0.590630000000     0.437220000000     0.501150000000    -0.496654   
O349     O      0.541510000000     0.482570000000     0.561300000000    -0.497917   
O350     O      0.538780000000     0.435890000000     0.944370000000    -0.629399   
O351     O      0.542390000000     0.436430000000     0.561510000000    -0.631996   
O352     O      0.538190000000     0.482850000000     0.944640000000    -0.493627   
O353     O      0.868180000000     0.248960000000     0.811240000000    -0.376937   
O354     O      0.834990000000     0.276480000000     0.782240000000    -0.375444   
O355     O      0.858990000000     0.168080000000     0.667600000000    -0.373512   
O356     O      0.831390000000     0.140710000000     0.703830000000    -0.373498   
O357     O      0.855080000000     0.249020000000     0.664480000000    -0.38101    
O358     O      0.825570000000     0.276270000000     0.698980000000    -0.375573   
O359     O      0.862840000000     0.168440000000     0.820620000000    -0.375393   
O360     O      0.832440000000     0.140740000000     0.788210000000    -0.372744   
O361     O      0.906750000000     0.206310000000     0.804590000000    -0.340929   
O362     O      0.842360000000     0.212180000000     0.870680000000    -0.527769   
O363     O      0.903170000000     0.210070000000     0.688950000000    -0.528614   
O364     O      0.842040000000     0.207310000000     0.617030000000    -0.341388   
O365     O      0.844830000000     0.231610000000     0.744170000000    -0.496334   
O366     O      0.845520000000     0.185790000000     0.744410000000    -0.63244    
O367     O      0.728180000000     0.167760000000     0.820780000000    -0.383312   
O368     O      0.757570000000     0.140320000000     0.786470000000    -0.377281   
O369     O      0.719190000000     0.247700000000     0.682170000000    -0.379185   
O370     O      0.751670000000     0.275640000000     0.711170000000    -0.370899   
O371     O      0.731590000000     0.167650000000     0.667540000000    -0.376686   
O372     O      0.760750000000     0.140280000000     0.702090000000    -0.370122   
O373     O      0.724590000000     0.248250000000     0.816870000000    -0.370256   
O374     O      0.756970000000     0.276200000000     0.787850000000    -0.370936   
O375     O      0.687700000000     0.206920000000     0.818700000000    -0.516574   
O376     O      0.758020000000     0.209740000000     0.874430000000    -0.359973   
O377     O      0.682790000000     0.202500000000     0.691300000000    -0.344561   
O378     O      0.744100000000     0.213370000000     0.621930000000    -0.533514   
O379     O      0.744340000000     0.185220000000     0.748050000000    -0.632628   
O380     O      0.744300000000     0.230620000000     0.748130000000    -0.497369   
O381     O      0.796720000000     0.185040000000     0.804730000000    -0.500459   
O382     O      0.792480000000     0.231360000000     0.687800000000    -0.631369   
O383     O      0.796170000000     0.231960000000     0.804890000000    -0.630019   
O384     O      0.793370000000     0.185230000000     0.688120000000    -0.497236   
Zr61     Zr     0.992080000000     0.459200000000     0.562330000000     1.37405    
Zr62     Zr     0.989020000000     0.459090000000     0.947560000000     1.37052    
Zr63     Zr     0.591580000000     0.459850000000     0.558610000000     1.37678    
Zr64     Zr     0.587940000000     0.459730000000     0.943710000000     1.37304    
Zr65     Zr     0.540890000000     0.414050000000     0.503170000000     1.37353    
Zr66     Zr     0.539640000000     0.004850000000     0.503170000000     1.37574    
Zr67     Zr     0.845910000000     0.208770000000     0.801700000000     1.37314    
Zr68     Zr     0.842820000000     0.208590000000     0.687000000000     1.3743     
Zr69     Zr     0.746960000000     0.208160000000     0.805600000000     1.37173    
Zr70     Zr     0.743300000000     0.207940000000     0.690720000000     1.37719    
Zr71     Zr     0.794040000000     0.253790000000     0.746080000000     1.3738     
Zr72     Zr     0.795220000000     0.162970000000     0.746270000000     1.37615    
C577     C      0.988200000000     0.897090000000     0.076740000000     0.391393   
C578     C      0.979740000000     0.521300000000     0.436680000000     0.38904    
C579     C      0.974400000000     0.897100000000     0.446470000000     0.39294    
C580     C      0.982140000000     0.521490000000     0.071790000000     0.391112   
C581     C      0.594450000000     0.521800000000     0.074690000000     0.39442    
C582     C      0.603280000000     0.897770000000     0.440440000000     0.389261   
C583     C      0.600410000000     0.521820000000     0.438870000000     0.39146    
C584     C      0.608670000000     0.898250000000     0.058550000000     0.396086   
C585     C      0.860680000000     0.770710000000     0.302650000000     0.392932   
C586     C      0.852370000000     0.646320000000     0.177250000000     0.389606   
C587     C      0.846160000000     0.770690000000     0.171940000000     0.390875   
C588     C      0.855160000000     0.646590000000     0.312790000000     0.387927   
C589     C      0.734740000000     0.646050000000     0.310920000000     0.391858   
C590     C      0.725880000000     0.769500000000     0.191280000000     0.394421   
C591     C      0.740050000000     0.645940000000     0.175190000000     0.394323   
C592     C      0.731960000000     0.770160000000     0.309130000000     0.391484   
C593     C      0.627840000000     0.534650000000     0.131350000000     0.0119743  
C594     C      0.706450000000     0.633040000000     0.118720000000     0.0123778  
C595     C      0.736780000000     0.602960000000     0.157710000000     0.0121276  
C596     C      0.674030000000     0.618520000000     0.119140000000    -0.0997936  
C597     C      0.660250000000     0.549180000000     0.131020000000    -0.0997062  
C598     C      0.706060000000     0.586650000000     0.159850000000    -0.0996364  
C599     C      0.655390000000     0.575380000000     0.119980000000     0.0161801  
C600     C      0.678880000000     0.592330000000     0.130160000000     0.0164165  
C601     C      0.597510000000     0.564740000000     0.092430000000     0.0121458  
C602     C      0.628200000000     0.581070000000     0.090320000000    -0.0997307  
C603     C      0.613620000000     0.564760000000     0.434930000000     0.0114499  
C604     C      0.721590000000     0.603120000000     0.315210000000     0.0115319  
C605     C      0.685420000000     0.634420000000     0.348910000000     0.0122356  
C606     C      0.710140000000     0.585710000000     0.346630000000    -0.101461   
C607     C      0.625160000000     0.582230000000     0.403640000000    -0.10113    
C608     C      0.659470000000     0.614380000000     0.348180000000    -0.10273    
C609     C      0.659860000000     0.576560000000     0.388000000000     0.0170396  
C610     C      0.675460000000     0.591400000000     0.362340000000     0.0174631  
C611     C      0.649960000000     0.533530000000     0.401310000000     0.0108409  
C612     C      0.675850000000     0.553590000000     0.402200000000    -0.101778   
C613     C      0.706090000000     0.811350000000     0.195680000000     0.0128258  
C614     C      0.628300000000     0.856350000000     0.054450000000     0.0131845  
C615     C      0.661840000000     0.886300000000     0.090150000000     0.0126115  
C616     C      0.631390000000     0.837930000000     0.086570000000    -0.100451   
C617     C      0.702910000000     0.829800000000     0.163620000000    -0.100182   
C618     C      0.667680000000     0.869080000000     0.123660000000    -0.100308   
C619     C      0.674080000000     0.824790000000     0.135890000000     0.0161726  
C620     C      0.660220000000     0.842930000000     0.114310000000     0.0169443  
C621     C      0.672540000000     0.781410000000     0.160010000000     0.0107307  
C622     C      0.666600000000     0.798640000000     0.126540000000    -0.0995194  
C623     C      0.864140000000     0.603190000000     0.172230000000     0.00999759 
C624     C      0.970200000000     0.564590000000     0.076710000000     0.010141   
C625     C      0.937000000000     0.534010000000     0.116110000000     0.0102304  
C626     C      0.964780000000     0.582680000000     0.109090000000    -0.101906   
C627     C      0.869510000000     0.585080000000     0.139880000000    -0.101764   
C628     C      0.932120000000     0.553190000000     0.147060000000    -0.101921   
C629     C      0.902800000000     0.590310000000     0.121050000000     0.019836   
C630     C      0.931480000000     0.577430000000     0.127870000000     0.020014   
C631     C      0.897330000000     0.633740000000     0.132710000000     0.0085894  
C632     C      0.902150000000     0.614530000000     0.101800000000    -0.101104   
C633     C      0.921270000000     0.884630000000     0.415330000000     0.0119753  
C634     C      0.913820000000     0.783210000000     0.333730000000     0.0102302  
C635     C      0.877270000000     0.813420000000     0.302640000000     0.0116824  
C636     C      0.919250000000     0.798890000000     0.369180000000    -0.099214   
C637     C      0.915830000000     0.868940000000     0.379890000000    -0.100267   
C638     C      0.881170000000     0.830760000000     0.336380000000    -0.0997458  
C639     C      0.924330000000     0.842640000000     0.386200000000     0.0163996  
C640     C      0.910740000000     0.825190000000     0.362890000000     0.0159857  
C641     C      0.957780000000     0.854400000000     0.446440000000     0.0117835  
C642     C      0.953880000000     0.837070000000     0.412710000000    -0.0999564  
C643     C      0.967530000000     0.564460000000     0.429750000000     0.00975931 
C644     C      0.867260000000     0.603410000000     0.319900000000     0.00921016 
C645     C      0.901210000000     0.634460000000     0.356450000000     0.00880179 
C646     C      0.870960000000     0.586450000000     0.354260000000    -0.101005   
C647     C      0.963690000000     0.581480000000     0.395480000000    -0.101318   
C648     C      0.904210000000     0.616890000000     0.390090000000    -0.10095    
C649     C      0.930870000000     0.576340000000     0.375110000000     0.0190945  
C650     C      0.903760000000     0.591570000000     0.374690000000     0.0185627  
C651     C      0.933570000000     0.533430000000     0.393220000000     0.00983304 
C652     C      0.930430000000     0.551030000000     0.359640000000    -0.101419   
C653     C      0.679050000000     0.781860000000     0.341010000000     0.0117886  
C654     C      0.656300000000     0.886110000000     0.408780000000     0.00944923 
C655     C      0.620420000000     0.855330000000     0.439930000000     0.011613   
C656     C      0.665250000000     0.869190000000     0.375730000000    -0.0995401  
C657     C      0.670220000000     0.798740000000     0.374130000000    -0.100575   
C658     C      0.627700000000     0.837260000000     0.407970000000    -0.100294   
C659     C      0.676410000000     0.825080000000     0.365360000000     0.0168022  
C660     C      0.659070000000     0.842870000000     0.384540000000     0.0161281  
C661     C      0.714980000000     0.812640000000     0.309880000000     0.0121112  
C662     C      0.707780000000     0.830670000000     0.341920000000    -0.100583   
C663     C      0.847080000000     0.813440000000     0.152900000000     0.0122629  
C664     C      0.986920000000     0.854280000000     0.095440000000     0.0119665  
C665     C      0.954100000000     0.883850000000     0.132640000000     0.0120072  
C666     C      0.956980000000     0.837490000000     0.091320000000    -0.0992226  
C667     C      0.876960000000     0.830290000000     0.156870000000    -0.0993803  
C668     C      0.922350000000     0.868640000000     0.130910000000    -0.0994306  
C669     C      0.905380000000     0.825180000000     0.128490000000     0.0163175  
C670     C      0.928550000000     0.842590000000     0.119690000000     0.0165535  
C671     C      0.879870000000     0.783870000000     0.115690000000     0.0111631  
C672     C      0.911590000000     0.799130000000     0.117230000000    -0.0990508  
H961     H      0.969800000000     0.992180000000     0.005460000000     0.195236   
H962     H      0.538280000000     0.925250000000     0.422490000000     0.189751   
H963     H      0.609920000000     0.992940000000     0.001450000000     0.192123   
H964     H      0.543860000000     0.926160000000     0.083750000000     0.197175   
H965     H      0.993940000000     0.938840000000     0.372330000000     0.132771   
H966     H      0.570360000000     0.972710000000     0.362120000000     0.203254   
H967     H      0.658400000000     0.962800000000     0.455600000000     0.124639   
H968     H      0.663190000000     0.966860000000     0.033790000000     0.181362   
H969     H      0.575490000000     0.966600000000     0.137720000000     0.135888   
H970     H      0.511860000000     0.952940000000     0.145290000000     0.188002   
H971     H      0.925740000000     0.946910000000     0.039350000000     0.135372   
H972     H      0.916020000000     0.965620000000     0.466670000000     0.186367   
H973     H      0.663760000000     0.965790000000     0.081910000000     0.197407   
H974     H      0.975070000000     0.967300000000     0.145740000000     0.199933   
H975     H      0.917480000000     0.958220000000     0.420050000000     0.196842   
H976     H      0.578520000000     0.943380000000     0.361910000000     0.192536   
H977     H      0.865050000000     0.675590000000     0.243850000000     0.191863   
H978     H      0.790930000000     0.741610000000     0.165540000000     0.192585   
H979     H      0.724960000000     0.674900000000     0.248030000000     0.194501   
H980     H      0.796730000000     0.742570000000     0.326800000000     0.197585   
H981     H      0.818350000000     0.710370000000     0.110110000000     0.130154   
H982     H      0.746150000000     0.699690000000     0.105150000000     0.196954   
H983     H      0.675860000000     0.707580000000     0.217390000000     0.126774   
H984     H      0.671950000000     0.705270000000     0.297750000000     0.184491   
H985     H      0.766960000000     0.693730000000     0.380800000000     0.1409     
H986     H      0.843870000000     0.727680000000     0.382780000000     0.195233   
H987     H      0.914150000000     0.709260000000     0.277820000000     0.130281   
H988     H      0.915620000000     0.696960000000     0.200010000000     0.186161   
H989     H      0.679700000000     0.707960000000     0.344880000000     0.197298   
H990     H      0.839170000000     0.698060000000     0.386220000000     0.198084   
H991     H      0.914930000000     0.723730000000     0.178670000000     0.199711   
H992     H      0.742790000000     0.729240000000     0.111110000000     0.191329   
H993     H      0.670630000000     0.547360000000     0.160480000000     0.0416192  
H994     H      0.721250000000     0.628400000000     0.092630000000     0.0249162  
H995     H      0.581640000000     0.570030000000     0.117350000000     0.0267279  
H996     H      0.618200000000     0.599400000000     0.094160000000     0.0419604  
H997     H      0.663600000000     0.620370000000     0.089700000000     0.0420303  
H998     H      0.716050000000     0.568310000000     0.156050000000     0.0413758  
H999     H      0.634700000000     0.515480000000     0.133930000000     0.0328132  
H1000    H      0.699600000000     0.652210000000     0.116100000000     0.0346515  
H1001    H      0.639420000000     0.579730000000     0.061130000000     0.0487454  
H1002    H      0.694840000000     0.588030000000     0.189030000000     0.0493257  
H1003    H      0.582290000000     0.567770000000     0.066100000000     0.0366172  
H1004    H      0.752650000000     0.597640000000     0.132820000000     0.0265288  
H1005    H      0.678120000000     0.540960000000     0.110380000000     0.0478994  
H1006    H      0.656200000000     0.626760000000     0.139820000000     0.0513833  
H1007    H      0.751970000000     0.599960000000     0.184070000000     0.0367096  
H1008    H      0.613010000000     0.539240000000     0.157440000000     0.0260968  
H1009    H      0.606840000000     0.581830000000     0.379550000000     0.0489324  
H1010    H      0.748750000000     0.599840000000     0.310230000000     0.0354718  
H1011    H      0.642420000000     0.529840000000     0.371080000000     0.0323654  
H1012    H      0.697750000000     0.547590000000     0.385240000000     0.0424348  
H1013    H      0.728500000000     0.586180000000     0.370680000000     0.0485474  
H1014    H      0.637670000000     0.620430000000     0.365270000000     0.0416536  
H1015    H      0.627040000000     0.568700000000     0.462250000000     0.0281569  
H1016    H      0.708090000000     0.599130000000     0.287960000000     0.0286382  
H1017    H      0.684740000000     0.556310000000     0.432190000000     0.0484594  
H1018    H      0.650460000000     0.611660000000     0.318250000000     0.0490936  
H1019    H      0.662330000000     0.517260000000     0.413010000000     0.0346646  
H1020    H      0.693110000000     0.638100000000     0.379100000000     0.0292827  
H1021    H      0.624990000000     0.600280000000     0.416920000000     0.0419444  
H1022    H      0.710310000000     0.567640000000     0.333460000000     0.0425064  
H1023    H      0.673030000000     0.650710000000     0.337310000000     0.0293467  
H1024    H      0.586440000000     0.568030000000     0.439830000000     0.0358537  
H1025    H      0.699690000000     0.847100000000     0.178720000000     0.0416134  
H1026    H      0.648860000000     0.853590000000     0.033320000000     0.0256687  
H1027    H      0.651340000000     0.782650000000     0.180710000000     0.0274666  
H1028    H      0.639950000000     0.796020000000     0.118530000000     0.0419009  
H1029    H      0.634560000000     0.820620000000     0.071530000000     0.0414624  
H1030    H      0.694300000000     0.871720000000     0.131770000000     0.0418262  
H1031    H      0.730030000000     0.814780000000     0.211070000000     0.0365033  
H1032    H      0.604360000000     0.852930000000     0.039060000000     0.0365343  
H1033    H      0.682540000000     0.793210000000     0.101820000000     0.0470544  
H1034    H      0.651660000000     0.874530000000     0.148310000000     0.0501597  
H1035    H      0.672380000000     0.762990000000     0.148090000000     0.0354358  
H1036    H      0.683090000000     0.885030000000     0.069510000000     0.0260227  
H1037    H      0.726680000000     0.830370000000     0.146970000000     0.0492917  
H1038    H      0.607610000000     0.837420000000     0.103210000000     0.0501557  
H1039    H      0.662000000000     0.904720000000     0.102040000000     0.0349091  
H1040    H      0.685530000000     0.814070000000     0.216850000000     0.0259182  
H1041    H      0.866330000000     0.566710000000     0.150740000000     0.0422206  
H1042    H      0.952380000000     0.568310000000     0.052840000000     0.0287077  
H1043    H      0.920660000000     0.635370000000     0.150000000000     0.0260381  
H1044    H      0.924100000000     0.618730000000     0.083740000000     0.0425581  
H1045    H      0.967960000000     0.601060000000     0.098270000000     0.042229   
H1046    H      0.910150000000     0.548950000000     0.165070000000     0.0420947  
H1047    H      0.838310000000     0.600280000000     0.183270000000     0.0374313  
H1048    H      0.996040000000     0.567540000000     0.065690000000     0.0373736  
H1049    H      0.880480000000     0.615270000000     0.081700000000     0.05015    
H1050    H      0.953770000000     0.552440000000     0.167190000000     0.0489123  
H1051    H      0.893270000000     0.650960000000     0.117460000000     0.0385257  
H1052    H      0.913700000000     0.532390000000     0.098750000000     0.0285773  
H1053    H      0.849170000000     0.587340000000     0.118290000000     0.0496905  
H1054    H      0.985110000000     0.580410000000     0.130700000000     0.0494384  
H1055    H      0.941020000000     0.516770000000     0.131320000000     0.0327555  
H1056    H      0.881970000000     0.599470000000     0.196100000000     0.0283529  
H1057    H      0.889050000000     0.871430000000     0.372310000000     0.0411978  
H1058    H      0.934400000000     0.786350000000     0.312730000000     0.0275953  
H1059    H      0.938710000000     0.850270000000     0.468830000000     0.0268332  
H1060    H      0.951310000000     0.819220000000     0.426230000000     0.0416448  
H1061    H      0.946020000000     0.796390000000     0.376790000000     0.0419586  
H1062    H      0.883730000000     0.848610000000     0.322880000000     0.0413068  
H1063    H      0.919350000000     0.903550000000     0.405920000000     0.0304217  
H1064    H      0.915770000000     0.764290000000     0.343130000000     0.0374836  
H1065    H      0.977230000000     0.837250000000     0.395260000000     0.0485899  
H1066    H      0.857830000000     0.830560000000     0.353840000000     0.0488602  
H1067    H      0.982760000000     0.851130000000     0.459570000000     0.0361315  
H1068    H      0.896340000000     0.817560000000     0.280250000000     0.0267114  
H1069    H      0.931450000000     0.875800000000     0.355840000000     0.0474144  
H1070    H      0.903610000000     0.792020000000     0.393220000000     0.0479516  
H1071    H      0.852290000000     0.816690000000     0.289530000000     0.0362677  
H1072    H      0.900690000000     0.881530000000     0.436340000000     0.0259207  
H1073    H      0.967360000000     0.600010000000     0.405250000000     0.0424044  
H1074    H      0.885900000000     0.598620000000     0.297400000000     0.0279509  
H1075    H      0.910230000000     0.533860000000     0.410700000000     0.026498   
H1076    H      0.908600000000     0.546210000000     0.341880000000     0.042075   
H1077    H      0.867240000000     0.567910000000     0.344590000000     0.0417877  
H1078    H      0.926000000000     0.621710000000     0.407930000000     0.0424904  
H1079    H      0.992970000000     0.567470000000     0.441870000000     0.0372138  
H1080    H      0.841850000000     0.600420000000     0.307710000000     0.03692    
H1081    H      0.952400000000     0.548590000000     0.340330000000     0.0506093  
H1082    H      0.882200000000     0.619380000000     0.409310000000     0.0488557  
H1083    H      0.935830000000     0.515300000000     0.380490000000     0.0360861  
H1084    H      0.924600000000     0.633970000000     0.339050000000     0.0295901  
H1085    H      0.984640000000     0.578140000000     0.375060000000     0.0502917  
H1086    H      0.849980000000     0.589860000000     0.374600000000     0.0493423  
H1087    H      0.898940000000     0.652610000000     0.369110000000     0.0366917  
H1088    H      0.948940000000     0.569200000000     0.452350000000     0.0278305  
H1089    H      0.643460000000     0.795070000000     0.380150000000     0.0414611  
H1090    H      0.676160000000     0.885250000000     0.431220000000     0.0290673  
H1091    H      0.697270000000     0.815710000000     0.285700000000     0.0267032  
H1092    H      0.705820000000     0.848050000000     0.326870000000     0.0416685  
H1093    H      0.692030000000     0.872880000000     0.369810000000     0.0422477  
H1094    H      0.629730000000     0.819910000000     0.423110000000     0.0413454  
H1095    H      0.678820000000     0.763430000000     0.352890000000     0.0337748  
H1096    H      0.656490000000     0.904530000000     0.396820000000     0.0389273  
H1097    H      0.729570000000     0.831390000000     0.361820000000     0.0493045  
H1098    H      0.605930000000     0.836470000000     0.388060000000     0.0484862  
H1099    H      0.740640000000     0.816410000000     0.299010000000     0.0360211  
H1100    H      0.638120000000     0.852330000000     0.464150000000     0.0269506  
H1101    H      0.685140000000     0.793780000000     0.399930000000     0.0492262  
H1102    H      0.650410000000     0.874120000000     0.349860000000     0.0480402  
H1103    H      0.594760000000     0.851530000000     0.450800000000     0.0358383  
H1104    H      0.659150000000     0.782790000000     0.318630000000     0.0267401  
H1105    H      0.866460000000     0.848450000000     0.152740000000     0.0417469  
H1106    H      0.501620000000     0.849280000000     0.121420000000     0.0252393  
H1107    H      0.865650000000     0.788070000000     0.088990000000     0.0254614  
H1108    H      0.922750000000     0.797720000000     0.088080000000     0.0415445  
H1109    H      0.967420000000     0.819300000000     0.095330000000     0.0414434  
H1110    H      0.911080000000     0.870080000000     0.160000000000     0.0416837  
H1111    H      0.830390000000     0.816230000000     0.178100000000     0.0360381  
H1112    H      0.503620000000     0.851500000000     0.070250000000     0.0363265  
H1113    H      0.929320000000     0.791180000000     0.138310000000     0.0480828  
H1114    H      0.904730000000     0.876600000000     0.109730000000     0.0507084  
H1115    H      0.887590000000     0.764840000000     0.113600000000     0.0343823  
H1116    H      0.968220000000     0.879610000000     0.159390000000     0.0243129  
H1117    H      0.887100000000     0.828960000000     0.186580000000     0.0499783  
H1118    H      0.946880000000     0.838900000000     0.061600000000     0.0501094  
H1119    H      0.946420000000     0.902890000000     0.134760000000     0.0350043  
H1120    H      0.832320000000     0.818370000000     0.126920000000     0.0248175  
N97      N      0.726720000000     0.628020000000     0.153070000000    -0.173586   
N98      N      0.607610000000     0.539690000000     0.097000000000    -0.174201   
N99      N      0.715300000000     0.628250000000     0.325920000000    -0.175704   
N100     N      0.619940000000     0.539650000000     0.424110000000    -0.175108   
N101     N      0.630530000000     0.880720000000     0.069840000000    -0.173726   
N102     N      0.703890000000     0.787000000000     0.180210000000    -0.174466   
N103     N      0.965470000000     0.539630000000     0.090150000000    -0.173371   
N104     N      0.868910000000     0.628140000000     0.158760000000    -0.172626   
N105     N      0.881590000000     0.788550000000     0.315150000000    -0.173763   
N106     N      0.953500000000     0.879270000000     0.433930000000    -0.174547   
N107     N      0.872280000000     0.628670000000     0.331360000000    -0.172687   
N108     N      0.962550000000     0.539220000000     0.418220000000    -0.172322   
N109     N      0.623900000000     0.880110000000     0.426500000000    -0.172791   
N110     N      0.711440000000     0.787850000000     0.323210000000    -0.172622   
N111     N      0.975610000000     0.879120000000     0.099250000000    -0.174107   
N112     N      0.858470000000     0.788620000000     0.149160000000    -0.174641   
O385     O      0.979190000000     0.918730000000     0.084140000000    -0.378348   
O386     O      0.509090000000     0.891530000000     0.049990000000    -0.375036   
O387     O      0.972110000000     0.999450000000     0.428770000000    -0.370787   
O388     O      0.502450000000     0.527140000000     0.461280000000    -0.371672   
O389     O      0.966880000000     0.918870000000     0.437920000000    -0.382426   
O390     O      0.500060000000     0.891330000000     0.466900000000    -0.376295   
O391     O      0.975470000000     0.999700000000     0.081300000000    -0.374648   
O392     O      0.503340000000     0.527120000000     0.045440000000    -0.373372   
O393     O      0.931120000000     0.957720000000     0.061030000000    -0.354166   
O394     O      0.993350000000     0.960130000000     0.131620000000    -0.523511   
O395     O      0.928810000000     0.961390000000     0.444080000000    -0.520943   
O396     O      0.993000000000     0.956180000000     0.377800000000    -0.352824   
O397     O      0.990130000000     0.936240000000     0.005090000000    -0.499388   
O398     O      0.989360000000     0.982010000000     0.004920000000    -0.632227   
O399     O      0.602860000000     0.500080000000     0.082340000000    -0.380904   
O400     O      0.573940000000     0.527490000000     0.047610000000    -0.370607   
O401     O      0.610640000000     0.919700000000     0.432740000000    -0.373018   
O402     O      0.578150000000     0.891700000000     0.461530000000    -0.371577   
O403     O      0.607030000000     0.500130000000     0.428980000000    -0.379199   
O404     O      0.577430000000     0.527530000000     0.463140000000    -0.376683   
O405     O      0.615330000000     0.920050000000     0.067760000000    -0.371703   
O406     O      0.583060000000     0.892150000000     0.038350000000    -0.370127   
O407     O      0.651470000000     0.965270000000     0.057970000000    -0.523328   
O408     O      0.591040000000     0.954200000000     0.128040000000    -0.35842    
O409     O      0.647740000000     0.960900000000     0.430060000000    -0.335702   
O410     O      0.576790000000     0.958340000000     0.375630000000    -0.528202   
O411     O      0.590540000000     0.982620000000     0.001340000000    -0.632238   
O412     O      0.590630000000     0.937220000000     0.001150000000    -0.496596   
O413     O      0.541510000000     0.982570000000     0.061300000000    -0.497766   
O414     O      0.538780000000     0.935890000000     0.444370000000    -0.629476   
O415     O      0.542390000000     0.936430000000     0.061510000000    -0.631995   
O416     O      0.538190000000     0.982850000000     0.444640000000    -0.493551   
O417     O      0.868190000000     0.748960000000     0.311240000000    -0.376987   
O418     O      0.834990000000     0.776480000000     0.282250000000    -0.375478   
O419     O      0.858990000000     0.668090000000     0.167600000000    -0.373393   
O420     O      0.831390000000     0.640710000000     0.203830000000    -0.373489   
O421     O      0.855080000000     0.749020000000     0.164480000000    -0.380987   
O422     O      0.825570000000     0.776280000000     0.198980000000    -0.375533   
O423     O      0.862840000000     0.668440000000     0.320620000000    -0.375407   
O424     O      0.832440000000     0.640740000000     0.288210000000    -0.372699   
O425     O      0.906750000000     0.706310000000     0.304590000000    -0.340905   
O426     O      0.842360000000     0.712180000000     0.370680000000    -0.52793    
O427     O      0.903170000000     0.710080000000     0.188950000000    -0.528622   
O428     O      0.842040000000     0.707310000000     0.117030000000    -0.3414     
O429     O      0.844830000000     0.731620000000     0.244170000000    -0.496387   
O430     O      0.845520000000     0.685790000000     0.244410000000    -0.63226    
O431     O      0.728180000000     0.667760000000     0.320780000000    -0.383433   
O432     O      0.757570000000     0.640320000000     0.286470000000    -0.377292   
O433     O      0.719190000000     0.747700000000     0.182180000000    -0.379237   
O434     O      0.751670000000     0.775640000000     0.211170000000    -0.37094    
O435     O      0.731590000000     0.667650000000     0.167540000000    -0.376715   
O436     O      0.760750000000     0.640270000000     0.202080000000    -0.370147   
O437     O      0.724590000000     0.748250000000     0.316870000000    -0.370148   
O438     O      0.756970000000     0.776210000000     0.287860000000    -0.370934   
O439     O      0.687700000000     0.706920000000     0.318700000000    -0.516838   
O440     O      0.758020000000     0.709740000000     0.374430000000    -0.359986   
O441     O      0.682790000000     0.702510000000     0.191300000000    -0.344752   
O442     O      0.744100000000     0.713370000000     0.121930000000    -0.533209   
O443     O      0.744340000000     0.685220000000     0.248050000000    -0.632692   
O444     O      0.744300000000     0.730620000000     0.248130000000    -0.497306   
O445     O      0.796720000000     0.685040000000     0.304730000000    -0.500447   
O446     O      0.792480000000     0.731360000000     0.187800000000    -0.631371   
O447     O      0.796170000000     0.731960000000     0.304890000000    -0.630008   
O448     O      0.793370000000     0.685230000000     0.188120000000    -0.497245   
Zr73     Zr     0.992080000000     0.959200000000     0.062330000000     1.37402    
Zr74     Zr     0.989020000000     0.959080000000     0.447560000000     1.37031    
Zr75     Zr     0.591580000000     0.959850000000     0.058620000000     1.37692    
Zr76     Zr     0.587940000000     0.959740000000     0.443720000000     1.37296    
Zr77     Zr     0.540890000000     0.914050000000     0.003170000000     1.37317    
Zr78     Zr     0.539640000000     0.504850000000     0.003170000000     1.37586    
Zr79     Zr     0.845910000000     0.708780000000     0.301690000000     1.37303    
Zr80     Zr     0.842820000000     0.708590000000     0.187000000000     1.37424    
Zr81     Zr     0.746960000000     0.708150000000     0.305600000000     1.37172    
Zr82     Zr     0.743300000000     0.707940000000     0.190720000000     1.37717    
Zr83     Zr     0.794040000000     0.753790000000     0.246080000000     1.37368    
Zr84     Zr     0.795220000000     0.662970000000     0.246270000000     1.37603    
C673     C      0.988200000000     0.897090000000     0.576740000000     0.391261   
C674     C      0.979740000000     0.521300000000     0.936680000000     0.389044   
C675     C      0.974400000000     0.897110000000     0.946470000000     0.392799   
C676     C      0.982140000000     0.521490000000     0.571790000000     0.391118   
C677     C      0.594450000000     0.521800000000     0.574690000000     0.394415   
C678     C      0.603280000000     0.897770000000     0.940440000000     0.389268   
C679     C      0.600410000000     0.521820000000     0.938870000000     0.391467   
C680     C      0.608670000000     0.898250000000     0.558550000000     0.396096   
C681     C      0.860680000000     0.770710000000     0.802650000000     0.392918   
C682     C      0.852370000000     0.646320000000     0.677240000000     0.389572   
C683     C      0.846160000000     0.770690000000     0.671930000000     0.391083   
C684     C      0.855160000000     0.646590000000     0.812790000000     0.387994   
C685     C      0.734740000000     0.646060000000     0.810920000000     0.391924   
C686     C      0.725890000000     0.769500000000     0.691280000000     0.394459   
C687     C      0.740040000000     0.645940000000     0.675190000000     0.39423    
C688     C      0.731950000000     0.770160000000     0.809130000000     0.391486   
C689     C      0.627840000000     0.534650000000     0.631350000000     0.0119232  
C690     C      0.706450000000     0.633040000000     0.618720000000     0.0124047  
C691     C      0.736780000000     0.602960000000     0.657710000000     0.0121075  
C692     C      0.674030000000     0.618530000000     0.619130000000    -0.0998408  
C693     C      0.660250000000     0.549190000000     0.631020000000    -0.0996338  
C694     C      0.706060000000     0.586650000000     0.659850000000    -0.099614   
C695     C      0.655390000000     0.575390000000     0.619980000000     0.016187   
C696     C      0.678880000000     0.592320000000     0.630160000000     0.0163715  
C697     C      0.597510000000     0.564750000000     0.592430000000     0.0120449  
C698     C      0.628200000000     0.581070000000     0.590320000000    -0.0996931  
C699     C      0.613620000000     0.564760000000     0.934930000000     0.0114618  
C700     C      0.721590000000     0.603130000000     0.815210000000     0.0116344  
C701     C      0.685420000000     0.634420000000     0.848910000000     0.0121877  
C702     C      0.710140000000     0.585720000000     0.846630000000    -0.101421   
C703     C      0.625160000000     0.582240000000     0.903650000000    -0.101206   
C704     C      0.659470000000     0.614380000000     0.848180000000    -0.102717   
C705     C      0.659860000000     0.576560000000     0.888000000000     0.0170584  
C706     C      0.675460000000     0.591400000000     0.862330000000     0.0174659  
C707     C      0.649960000000     0.533530000000     0.901310000000     0.0108429  
C708     C      0.675850000000     0.553590000000     0.902200000000    -0.101791   
C709     C      0.706090000000     0.811360000000     0.695680000000     0.0127969  
C710     C      0.628290000000     0.856350000000     0.554450000000     0.0131761  
C711     C      0.661840000000     0.886300000000     0.590150000000     0.0126268  
C712     C      0.631390000000     0.837930000000     0.586570000000    -0.100453   
C713     C      0.702910000000     0.829800000000     0.663630000000    -0.100159   
C714     C      0.667670000000     0.869080000000     0.623650000000    -0.100227   
C715     C      0.674080000000     0.824790000000     0.635890000000     0.0161463  
C716     C      0.660220000000     0.842930000000     0.614300000000     0.0169572  
C717     C      0.672540000000     0.781410000000     0.660010000000     0.0106585  
C718     C      0.666600000000     0.798640000000     0.626540000000    -0.0994636  
C719     C      0.864140000000     0.603180000000     0.672230000000     0.00992694 
C720     C      0.970200000000     0.564590000000     0.576710000000     0.0101587  
C721     C      0.937000000000     0.534010000000     0.616110000000     0.0102132  
C722     C      0.964780000000     0.582680000000     0.609080000000    -0.101861   
C723     C      0.869510000000     0.585080000000     0.639880000000    -0.101769   
C724     C      0.932130000000     0.553190000000     0.647060000000    -0.101895   
C725     C      0.902790000000     0.590310000000     0.621050000000     0.0198921  
C726     C      0.931480000000     0.577430000000     0.627870000000     0.0199726  
C727     C      0.897320000000     0.633740000000     0.632710000000     0.0086438  
C728     C      0.902150000000     0.614530000000     0.601800000000    -0.101154   
C729     C      0.921270000000     0.884630000000     0.915330000000     0.0119972  
C730     C      0.913820000000     0.783210000000     0.833730000000     0.010238   
C731     C      0.877270000000     0.813420000000     0.802650000000     0.011757   
C732     C      0.919250000000     0.798880000000     0.869180000000    -0.0992713  
C733     C      0.915820000000     0.868940000000     0.879890000000    -0.100304   
C734     C      0.881170000000     0.830760000000     0.836390000000    -0.0998641  
C735     C      0.924330000000     0.842640000000     0.886200000000     0.0163961  
C736     C      0.910740000000     0.825190000000     0.862890000000     0.0160161  
C737     C      0.957780000000     0.854400000000     0.946440000000     0.0117156  
C738     C      0.953880000000     0.837070000000     0.912710000000    -0.0999355  
C739     C      0.967530000000     0.564460000000     0.929750000000     0.00973017 
C740     C      0.867260000000     0.603420000000     0.819900000000     0.00929018 
C741     C      0.901210000000     0.634450000000     0.856440000000     0.00894662 
C742     C      0.870960000000     0.586450000000     0.854260000000    -0.101009   
C743     C      0.963690000000     0.581480000000     0.895480000000    -0.10125    
C744     C      0.904210000000     0.616900000000     0.890090000000    -0.101049   
C745     C      0.930870000000     0.576350000000     0.875110000000     0.0190764  
C746     C      0.903750000000     0.591570000000     0.874690000000     0.0185944  
C747     C      0.933570000000     0.533430000000     0.893220000000     0.00978095 
C748     C      0.930430000000     0.551040000000     0.859640000000    -0.101385   
C749     C      0.679050000000     0.781860000000     0.841000000000     0.0118686  
C750     C      0.656300000000     0.886110000000     0.908780000000     0.0094566  
C751     C      0.620420000000     0.855330000000     0.939930000000     0.0116113  
C752     C      0.665250000000     0.869190000000     0.875730000000    -0.0995387  
C753     C      0.670220000000     0.798740000000     0.874130000000    -0.100624   
C754     C      0.627700000000     0.837260000000     0.907970000000    -0.100308   
C755     C      0.676410000000     0.825080000000     0.865370000000     0.0168061  
C756     C      0.659070000000     0.842870000000     0.884530000000     0.01613    
C757     C      0.714980000000     0.812640000000     0.809880000000     0.0120891  
C758     C      0.707780000000     0.830670000000     0.841920000000    -0.100575   
C759     C      0.847080000000     0.813440000000     0.652900000000     0.0122767  
C760     C      0.986920000000     0.854290000000     0.595430000000     0.0120878  
C761     C      0.954100000000     0.883850000000     0.632640000000     0.0119699  
C762     C      0.956980000000     0.837490000000     0.591320000000    -0.0993667  
C763     C      0.876960000000     0.830290000000     0.656870000000    -0.0993592  
C764     C      0.922350000000     0.868630000000     0.630920000000    -0.0994213  
C765     C      0.905380000000     0.825180000000     0.628490000000     0.0162944  
C766     C      0.928550000000     0.842590000000     0.619690000000     0.0166324  
C767     C      0.879880000000     0.783870000000     0.615690000000     0.0111513  
C768     C      0.911590000000     0.799130000000     0.617230000000    -0.0990163  
H1121    H      0.969800000000     0.992180000000     0.505460000000     0.195685   
H1122    H      0.538280000000     0.925250000000     0.922490000000     0.189726   
H1123    H      0.609920000000     0.992940000000     0.501450000000     0.192202   
H1124    H      0.543860000000     0.926150000000     0.583750000000     0.196993   
H1125    H      0.993940000000     0.938850000000     0.872320000000     0.132965   
H1126    H      0.570360000000     0.972710000000     0.862120000000     0.20327    
H1127    H      0.658390000000     0.962800000000     0.955600000000     0.124765   
H1128    H      0.663180000000     0.966860000000     0.533780000000     0.181344   
H1129    H      0.575490000000     0.966600000000     0.637720000000     0.135881   
H1130    H      0.511860000000     0.952940000000     0.645290000000     0.188007   
H1131    H      0.925740000000     0.946920000000     0.539350000000     0.135538   
H1132    H      0.916010000000     0.965620000000     0.966680000000     0.186172   
H1133    H      0.663760000000     0.965790000000     0.581910000000     0.197421   
H1134    H      0.975070000000     0.967300000000     0.645740000000     0.199935   
H1135    H      0.917480000000     0.958220000000     0.920050000000     0.196767   
H1136    H      0.578520000000     0.943380000000     0.861910000000     0.192552   
H1137    H      0.865050000000     0.675600000000     0.743850000000     0.192249   
H1138    H      0.790930000000     0.741610000000     0.665540000000     0.192581   
H1139    H      0.724960000000     0.674900000000     0.748030000000     0.194502   
H1140    H      0.796720000000     0.742580000000     0.826800000000     0.197405   
H1141    H      0.818350000000     0.710370000000     0.610110000000     0.13016    
H1142    H      0.746150000000     0.699700000000     0.605150000000     0.197047   
H1143    H      0.675860000000     0.707580000000     0.717400000000     0.126644   
H1144    H      0.671940000000     0.705270000000     0.797750000000     0.184471   
H1145    H      0.766960000000     0.693730000000     0.880800000000     0.140721   
H1146    H      0.843870000000     0.727680000000     0.882790000000     0.195154   
H1147    H      0.914150000000     0.709260000000     0.777820000000     0.130268   
H1148    H      0.915620000000     0.696970000000     0.700010000000     0.186396   
H1149    H      0.679690000000     0.707970000000     0.844880000000     0.197266   
H1150    H      0.839170000000     0.698060000000     0.886230000000     0.197977   
H1151    H      0.914930000000     0.723730000000     0.678670000000     0.199786   
H1152    H      0.742790000000     0.729240000000     0.611110000000     0.191656   
H1153    H      0.670630000000     0.547360000000     0.660480000000     0.0416001  
H1154    H      0.721250000000     0.628400000000     0.592640000000     0.0249469  
H1155    H      0.581640000000     0.570030000000     0.617350000000     0.0267612  
H1156    H      0.618200000000     0.599400000000     0.594160000000     0.0419677  
H1157    H      0.663600000000     0.620370000000     0.589700000000     0.0420908  
H1158    H      0.716050000000     0.568310000000     0.656050000000     0.0413788  
H1159    H      0.634700000000     0.515480000000     0.633930000000     0.032826   
H1160    H      0.699600000000     0.652200000000     0.616100000000     0.0346587  
H1161    H      0.639420000000     0.579730000000     0.561130000000     0.0487792  
H1162    H      0.694840000000     0.588030000000     0.689030000000     0.0493171  
H1163    H      0.582290000000     0.567770000000     0.566100000000     0.0366767  
H1164    H      0.752650000000     0.597640000000     0.632820000000     0.0265489  
H1165    H      0.678120000000     0.540960000000     0.610380000000     0.0478856  
H1166    H      0.656200000000     0.626760000000     0.639820000000     0.0514     
H1167    H      0.751960000000     0.599950000000     0.684070000000     0.0366833  
H1168    H      0.613010000000     0.539240000000     0.657440000000     0.0261099  
H1169    H      0.606840000000     0.581830000000     0.879550000000     0.0489392  
H1170    H      0.748760000000     0.599850000000     0.810230000000     0.0354597  
H1171    H      0.642420000000     0.529840000000     0.871080000000     0.0323619  
H1172    H      0.697750000000     0.547590000000     0.885240000000     0.0424487  
H1173    H      0.728500000000     0.586180000000     0.870680000000     0.0485505  
H1174    H      0.637670000000     0.620430000000     0.865270000000     0.0416627  
H1175    H      0.627040000000     0.568700000000     0.962250000000     0.0282134  
H1176    H      0.708090000000     0.599130000000     0.787960000000     0.0286072  
H1177    H      0.684740000000     0.556310000000     0.932190000000     0.0485013  
H1178    H      0.650460000000     0.611660000000     0.818250000000     0.0490895  
H1179    H      0.662330000000     0.517260000000     0.913000000000     0.0346862  
H1180    H      0.693110000000     0.638100000000     0.879090000000     0.0293253  
H1181    H      0.624990000000     0.600280000000     0.916920000000     0.0420343  
H1182    H      0.710310000000     0.567640000000     0.833460000000     0.0424632  
H1183    H      0.673030000000     0.650710000000     0.837310000000     0.0293719  
H1184    H      0.586440000000     0.568030000000     0.939830000000     0.0358809  
H1185    H      0.699690000000     0.847100000000     0.678720000000     0.0416188  
H1186    H      0.648870000000     0.853590000000     0.533320000000     0.0257296  
H1187    H      0.651340000000     0.782650000000     0.680710000000     0.027485   
H1188    H      0.639950000000     0.796020000000     0.618530000000     0.0418993  
H1189    H      0.634560000000     0.820620000000     0.571530000000     0.0414898  
H1190    H      0.694300000000     0.871720000000     0.631770000000     0.0417808  
H1191    H      0.730030000000     0.814780000000     0.711070000000     0.0365225  
H1192    H      0.604360000000     0.852930000000     0.539060000000     0.0365811  
H1193    H      0.682540000000     0.793200000000     0.601820000000     0.0470485  
H1194    H      0.651660000000     0.874530000000     0.648310000000     0.0501346  
H1195    H      0.672380000000     0.762990000000     0.648090000000     0.0354594  
H1196    H      0.683090000000     0.885030000000     0.569510000000     0.0260466  
H1197    H      0.726680000000     0.830370000000     0.646970000000     0.0492851  
H1198    H      0.607610000000     0.837420000000     0.603210000000     0.0501625  
H1199    H      0.662000000000     0.904730000000     0.602030000000     0.0349164  
H1200    H      0.685530000000     0.814070000000     0.716840000000     0.025937   
H1201    H      0.866330000000     0.566710000000     0.650740000000     0.0422305  
H1202    H      0.952380000000     0.568310000000     0.552830000000     0.0287396  
H1203    H      0.920660000000     0.635380000000     0.650000000000     0.0260222  
H1204    H      0.924100000000     0.618730000000     0.583740000000     0.0425944  
H1205    H      0.967960000000     0.601060000000     0.598260000000     0.0422342  
H1206    H      0.910150000000     0.548950000000     0.665070000000     0.0420686  
H1207    H      0.838310000000     0.600280000000     0.683270000000     0.0374509  
H1208    H      0.996040000000     0.567540000000     0.565690000000     0.037395   
H1209    H      0.880480000000     0.615270000000     0.581700000000     0.0501838  
H1210    H      0.953770000000     0.552440000000     0.667190000000     0.0489234  
H1211    H      0.893270000000     0.650950000000     0.617460000000     0.0385197  
H1212    H      0.913700000000     0.532400000000     0.598750000000     0.028602   
H1213    H      0.849170000000     0.587350000000     0.618290000000     0.0497088  
H1214    H      0.985110000000     0.580410000000     0.630700000000     0.0494176  
H1215    H      0.941030000000     0.516770000000     0.631320000000     0.032769   
H1216    H      0.881970000000     0.599470000000     0.696100000000     0.0283758  
H1217    H      0.889050000000     0.871430000000     0.872310000000     0.0412416  
H1218    H      0.934400000000     0.786350000000     0.812730000000     0.0275923  
H1219    H      0.938710000000     0.850280000000     0.968830000000     0.0269171  
H1220    H      0.951310000000     0.819220000000     0.926230000000     0.0416687  
H1221    H      0.946020000000     0.796390000000     0.876790000000     0.0419904  
H1222    H      0.883730000000     0.848600000000     0.822880000000     0.0413582  
H1223    H      0.919350000000     0.903550000000     0.905920000000     0.0304289  
H1224    H      0.915770000000     0.764300000000     0.843120000000     0.0374927  
H1225    H      0.977230000000     0.837250000000     0.895260000000     0.0485899  
H1226    H      0.857830000000     0.830560000000     0.853840000000     0.0489093  
H1227    H      0.982760000000     0.851130000000     0.959570000000     0.0361916  
H1228    H      0.896340000000     0.817560000000     0.780250000000     0.0266888  
H1229    H      0.931450000000     0.875800000000     0.855840000000     0.0474063  
H1230    H      0.903610000000     0.792020000000     0.893220000000     0.0480055  
H1231    H      0.852290000000     0.816690000000     0.789530000000     0.0362448  
H1232    H      0.900690000000     0.881530000000     0.936340000000     0.0259549  
H1233    H      0.967360000000     0.600010000000     0.905250000000     0.0424066  
H1234    H      0.885890000000     0.598620000000     0.797400000000     0.0279298  
H1235    H      0.910230000000     0.533870000000     0.910700000000     0.0265443  
H1236    H      0.908600000000     0.546210000000     0.841880000000     0.0420608  
H1237    H      0.867240000000     0.567910000000     0.844590000000     0.0418005  
H1238    H      0.926000000000     0.621710000000     0.907930000000     0.0425488  
H1239    H      0.992970000000     0.567470000000     0.941870000000     0.037254   
H1240    H      0.841850000000     0.600430000000     0.807710000000     0.0369099  
H1241    H      0.952400000000     0.548590000000     0.840340000000     0.0506143  
H1242    H      0.882200000000     0.619390000000     0.909310000000     0.0489047  
H1243    H      0.935830000000     0.515300000000     0.880490000000     0.0361009  
H1244    H      0.924600000000     0.633980000000     0.839050000000     0.0295504  
H1245    H      0.984650000000     0.578140000000     0.875060000000     0.0502601  
H1246    H      0.849970000000     0.589870000000     0.874600000000     0.0493386  
H1247    H      0.898940000000     0.652610000000     0.869110000000     0.0366677  
H1248    H      0.948940000000     0.569200000000     0.952350000000     0.0278893  
H1249    H      0.643460000000     0.795070000000     0.880150000000     0.041485   
H1250    H      0.676160000000     0.885250000000     0.931220000000     0.029104   
H1251    H      0.697270000000     0.815710000000     0.785700000000     0.02671    
H1252    H      0.705820000000     0.848050000000     0.826870000000     0.0416686  
H1253    H      0.692030000000     0.872880000000     0.869810000000     0.0422565  
H1254    H      0.629730000000     0.819910000000     0.923100000000     0.0413873  
H1255    H      0.678820000000     0.763430000000     0.852890000000     0.0337696  
H1256    H      0.656500000000     0.904530000000     0.896820000000     0.0389264  
H1257    H      0.729570000000     0.831390000000     0.861820000000     0.0493177  
H1258    H      0.605930000000     0.836470000000     0.888060000000     0.0484938  
H1259    H      0.740640000000     0.816420000000     0.799000000000     0.0360126  
H1260    H      0.638120000000     0.852330000000     0.964150000000     0.0270188  
H1261    H      0.685140000000     0.793790000000     0.899930000000     0.0492775  
H1262    H      0.650410000000     0.874120000000     0.849860000000     0.0480386  
H1263    H      0.594760000000     0.851530000000     0.950800000000     0.0358808  
H1264    H      0.659150000000     0.782780000000     0.818630000000     0.0267183  
H1265    H      0.866460000000     0.848450000000     0.652730000000     0.0417473  
H1266    H      0.501620000000     0.849280000000     0.621430000000     0.0252124  
H1267    H      0.865650000000     0.788060000000     0.588990000000     0.0254869  
H1268    H      0.922740000000     0.797720000000     0.588080000000     0.0415709  
H1269    H      0.967420000000     0.819310000000     0.595330000000     0.0415254  
H1270    H      0.911080000000     0.870080000000     0.660000000000     0.0416957  
H1271    H      0.830390000000     0.816230000000     0.678090000000     0.0360335  
H1272    H      0.503620000000     0.851510000000     0.570250000000     0.0363395  
H1273    H      0.929330000000     0.791180000000     0.638310000000     0.048062   
H1274    H      0.904730000000     0.876610000000     0.609740000000     0.0506944  
H1275    H      0.887590000000     0.764840000000     0.613600000000     0.0343999  
H1276    H      0.968220000000     0.879610000000     0.659390000000     0.0243164  
H1277    H      0.887100000000     0.828970000000     0.686580000000     0.0499719  
H1278    H      0.946880000000     0.838900000000     0.561600000000     0.0501843  
H1279    H      0.946420000000     0.902890000000     0.634760000000     0.0350077  
H1280    H      0.832310000000     0.818370000000     0.626920000000     0.0248206  
N113     N      0.726720000000     0.628020000000     0.653060000000    -0.173583   
N114     N      0.607610000000     0.539690000000     0.597000000000    -0.174166   
N115     N      0.715300000000     0.628250000000     0.825920000000    -0.175657   
N116     N      0.619940000000     0.539650000000     0.924110000000    -0.175101   
N117     N      0.630530000000     0.880720000000     0.569840000000    -0.173718   
N118     N      0.703890000000     0.787010000000     0.680210000000    -0.174353   
N119     N      0.965470000000     0.539630000000     0.590150000000    -0.173368   
N120     N      0.868910000000     0.628140000000     0.658760000000    -0.172644   
N121     N      0.881590000000     0.788550000000     0.815150000000    -0.173776   
N122     N      0.953490000000     0.879270000000     0.933930000000    -0.174412   
N123     N      0.872280000000     0.628670000000     0.831350000000    -0.172761   
N124     N      0.962550000000     0.539220000000     0.918220000000    -0.172302   
N125     N      0.623900000000     0.880110000000     0.926500000000    -0.172779   
N126     N      0.711440000000     0.787840000000     0.823210000000    -0.172715   
N127     N      0.975610000000     0.879120000000     0.599250000000    -0.174099   
N128     N      0.858470000000     0.788620000000     0.649160000000    -0.174699   
O449     O      0.979180000000     0.918740000000     0.584130000000    -0.378251   
O450     O      0.509090000000     0.891530000000     0.550000000000    -0.375009   
O451     O      0.972110000000     0.999450000000     0.928770000000    -0.370742   
O452     O      0.502450000000     0.527140000000     0.961280000000    -0.371549   
O453     O      0.966880000000     0.918870000000     0.937920000000    -0.382493   
O454     O      0.500060000000     0.891330000000     0.966900000000    -0.376167   
O455     O      0.975470000000     0.999700000000     0.581300000000    -0.374645   
O456     O      0.503340000000     0.527120000000     0.545440000000    -0.373361   
O457     O      0.931120000000     0.957720000000     0.561030000000    -0.354263   
O458     O      0.993350000000     0.960130000000     0.631620000000    -0.523503   
O459     O      0.928810000000     0.961390000000     0.944080000000    -0.520604   
O460     O      0.993000000000     0.956180000000     0.877800000000    -0.353043   
O461     O      0.990130000000     0.936240000000     0.505090000000    -0.499365   
O462     O      0.989350000000     0.982020000000     0.504920000000    -0.632427   
O463     O      0.602860000000     0.500080000000     0.582340000000    -0.380879   
O464     O      0.573940000000     0.527490000000     0.547610000000    -0.370588   
O465     O      0.610640000000     0.919700000000     0.932740000000    -0.372997   
O466     O      0.578150000000     0.891700000000     0.961530000000    -0.37146    
O467     O      0.607030000000     0.500130000000     0.928980000000    -0.379187   
O468     O      0.577430000000     0.527530000000     0.963140000000    -0.376559   
O469     O      0.615330000000     0.920050000000     0.567760000000    -0.371685   
O470     O      0.583060000000     0.892150000000     0.538350000000    -0.370103   
O471     O      0.651470000000     0.965270000000     0.557970000000    -0.523265   
O472     O      0.591040000000     0.954200000000     0.628040000000    -0.358348   
O473     O      0.647740000000     0.960900000000     0.930060000000    -0.335762   
O474     O      0.576790000000     0.958340000000     0.875630000000    -0.528319   
O475     O      0.590540000000     0.982620000000     0.501340000000    -0.632303   
O476     O      0.590630000000     0.937220000000     0.501150000000    -0.496608   
O477     O      0.541510000000     0.982570000000     0.561300000000    -0.497788   
O478     O      0.538780000000     0.935890000000     0.944370000000    -0.629424   
O479     O      0.542390000000     0.936430000000     0.561510000000    -0.631824   
O480     O      0.538190000000     0.982860000000     0.944640000000    -0.49342    
O481     O      0.868180000000     0.748960000000     0.811240000000    -0.377014   
O482     O      0.834990000000     0.776480000000     0.782240000000    -0.375439   
O483     O      0.858990000000     0.668090000000     0.667600000000    -0.373394   
O484     O      0.831390000000     0.640710000000     0.703830000000    -0.37342    
O485     O      0.855080000000     0.749030000000     0.664480000000    -0.381085   
O486     O      0.825570000000     0.776280000000     0.698980000000    -0.375522   
O487     O      0.862840000000     0.668440000000     0.820620000000    -0.375432   
O488     O      0.832440000000     0.640740000000     0.788210000000    -0.372713   
O489     O      0.906750000000     0.706310000000     0.804590000000    -0.340906   
O490     O      0.842360000000     0.712180000000     0.870680000000    -0.527753   
O491     O      0.903170000000     0.710080000000     0.688950000000    -0.528909   
O492     O      0.842040000000     0.707310000000     0.617030000000    -0.341379   
O493     O      0.844830000000     0.731620000000     0.744170000000    -0.496337   
O494     O      0.845520000000     0.685780000000     0.744410000000    -0.632529   
O495     O      0.728180000000     0.667760000000     0.820780000000    -0.383475   
O496     O      0.757570000000     0.640320000000     0.786470000000    -0.37728    
O497     O      0.719190000000     0.747700000000     0.682170000000    -0.379207   
O498     O      0.751660000000     0.775640000000     0.711170000000    -0.371055   
O499     O      0.731590000000     0.667650000000     0.667540000000    -0.376696   
O500     O      0.760750000000     0.640280000000     0.702090000000    -0.37013    
O501     O      0.724590000000     0.748250000000     0.816870000000    -0.370245   
O502     O      0.756970000000     0.776210000000     0.787850000000    -0.37084    
O503     O      0.687690000000     0.706920000000     0.818700000000    -0.516709   
O504     O      0.758020000000     0.709750000000     0.874430000000    -0.359762   
O505     O      0.682800000000     0.702510000000     0.691300000000    -0.344673   
O506     O      0.744100000000     0.713380000000     0.621930000000    -0.53355    
O507     O      0.744340000000     0.685220000000     0.748050000000    -0.632637   
O508     O      0.744300000000     0.730620000000     0.748130000000    -0.497365   
O509     O      0.796720000000     0.685030000000     0.804730000000    -0.500323   
O510     O      0.792480000000     0.731360000000     0.687800000000    -0.631375   
O511     O      0.796170000000     0.731960000000     0.804890000000    -0.629885   
O512     O      0.793370000000     0.685230000000     0.688120000000    -0.49724    
Zr85     Zr     0.992080000000     0.959200000000     0.562330000000     1.37401    
Zr86     Zr     0.989020000000     0.959080000000     0.947560000000     1.37055    
Zr87     Zr     0.591580000000     0.959850000000     0.558610000000     1.3769     
Zr88     Zr     0.587940000000     0.959740000000     0.943710000000     1.37313    
Zr89     Zr     0.540890000000     0.914050000000     0.503170000000     1.37345    
Zr90     Zr     0.539640000000     0.504850000000     0.503170000000     1.3762     
Zr91     Zr     0.845910000000     0.708780000000     0.801700000000     1.37291    
Zr92     Zr     0.842820000000     0.708590000000     0.687000000000     1.37416    
Zr93     Zr     0.746960000000     0.708160000000     0.805600000000     1.37154    
Zr94     Zr     0.743300000000     0.707940000000     0.690720000000     1.37725    
Zr95     Zr     0.794040000000     0.753790000000     0.746080000000     1.37365    
Zr96     Zr     0.795220000000     0.662970000000     0.746270000000     1.37626    


