data_structure

_audit_creation_method RASPA-1.0
_audit_creation_date 2023-6-5
_audit_author_name 'Poobodin Mano'

_cell_length_a    27.0687
_cell_length_b    26.6516
_cell_length_c    26.974
_cell_angle_alpha 89.2565
_cell_angle_beta  89.2563
_cell_angle_gamma 89.2563
_cell_volume      19454.8

_symmetry_cell_setting          triclinic
_symmetry_space_group_name_Hall 'P 1'
_symmetry_space_group_name_H-M  'P 1'
_symmetry_Int_Tables_number     1

_symmetry_equiv_pos_as_xyz 'x,y,z'

loop_
_atom_site_label
_atom_site_type_symbol
_atom_site_fract_x
_atom_site_fract_y
_atom_site_fract_z
_atom_site_charge
C1       C      0.861640000000     0.021940000000     0.366310000000     0.383654   
C2       C      0.000580000000     0.117380000000     0.611790000000     0.379767   
C3       C      0.998200000000     0.106710000000     0.353840000000     0.377686   
C4       C      0.867510000000     0.015180000000     0.624520000000     0.380221   
C5       C      0.967080000000     0.873740000000     0.626300000000     0.377492   
C6       C      0.096690000000     0.955570000000     0.356900000000     0.38461    
C7       C      0.108790000000     0.985160000000     0.613200000000     0.382777   
C8       C      0.956160000000     0.863970000000     0.368010000000     0.375421   
C9       C      0.019000000000     0.356820000000     0.098960000000     0.380161   
C10      C      0.861140000000     0.619550000000     0.021200000000     0.377053   
C11      C      0.874750000000     0.358590000000     0.010690000000     0.378201   
C12      C      0.014920000000     0.618210000000     0.113560000000     0.384198   
C13      C      0.096990000000     0.632590000000     0.962320000000     0.380253   
C14      C      0.979570000000     0.373780000000     0.861140000000     0.38395    
C15      C      0.947260000000     0.633280000000     0.879520000000     0.380983   
C16      C      0.108450000000     0.372010000000     0.941820000000     0.3839     
C17      C      0.622310000000     0.110590000000     0.999140000000     0.382446   
C18      C      0.359090000000     0.003990000000     0.115610000000     0.37895    
C19      C      0.616390000000     0.982550000000     0.115710000000     0.38151    
C20      C      0.364840000000     0.124500000000     0.993200000000     0.378112   
C21      C      0.362080000000     0.995100000000     0.871630000000     0.376575   
C22      C      0.613180000000     0.864170000000     0.989980000000     0.380132   
C23      C      0.356140000000     0.877820000000     0.000720000000     0.385221   
C24      C      0.619930000000     0.988010000000     0.871480000000     0.374553   
C25      C      0.772480000000     0.641090000000     0.027770000000     0.00900426 
C26      C      0.701430000000     0.843390000000     0.992320000000     0.0110178  
C27      C      0.635740000000     0.773000000000     0.988050000000     0.107777   
C28      C      0.739720000000     0.805000000000     0.974520000000    -0.10742    
C29      C      0.738380000000     0.679260000000     0.053390000000    -0.100307   
C30      C      0.678640000000     0.736950000000     0.974590000000    -0.132423   
C31      C      0.751020000000     0.730850000000     0.033970000000     0.016881   
C32      C      0.726340000000     0.754570000000     0.996020000000     0.0297502  
C33      C      0.839340000000     0.709600000000     0.024100000000     0.00976461 
C34      C      0.802190000000     0.744740000000     0.049900000000    -0.100825   
C35      C      0.790130000000     0.327480000000     0.028150000000     0.00829841 
C36      C      0.710340000000     0.127300000000     0.984390000000     0.00847367 
C37      C      0.653470000000     0.197370000000     0.016440000000     0.111139   
C38      C      0.753500000000     0.149330000000     0.012920000000    -0.105084   
C39      C      0.759440000000     0.295720000000     0.993770000000    -0.0987093  
C40      C      0.697140000000     0.216360000000     0.046150000000    -0.133224   
C41      C      0.775180000000     0.241230000000     0.999490000000     0.0122724  
C42      C      0.745030000000     0.205020000000     0.019180000000     0.0290009  
C43      C      0.861660000000     0.266470000000     0.017900000000     0.00845734 
C44      C      0.829330000000     0.232370000000     0.986500000000    -0.0995145  
C45      C      0.113530000000     0.724210000000     0.963560000000     0.00911231 
C46      C      0.326350000000     0.791810000000     0.016560000000     0.0164429  
C47      C      0.266810000000     0.862560000000     0.991640000000     0.107385   
C48      C      0.293370000000     0.757130000000     0.987450000000    -0.108426   
C49      C      0.149470000000     0.744750000000     0.001410000000    -0.0966256  
C50      C      0.227140000000     0.824890000000     0.008820000000    -0.129169   
C51      C      0.203040000000     0.736920000000     0.984370000000     0.0114931  
C52      C      0.239050000000     0.771470000000     0.992660000000     0.0277158  
C53      C      0.177270000000     0.664900000000     0.930660000000     0.0118538  
C54      C      0.216100000000     0.684310000000     0.966040000000    -0.0984203  
C55      C      0.340690000000     0.214730000000     0.996880000000     0.0097977  
C56      C      0.127640000000     0.283220000000     0.921580000000     0.0116694  
C57      C      0.191740000000     0.345440000000     0.903630000000     0.111445   
C58      C      0.162560000000     0.250510000000     0.953010000000    -0.103665   
C59      C      0.308210000000     0.244010000000     0.960240000000    -0.0980813  
C60      C      0.230040000000     0.318670000000     0.936360000000    -0.132118   
C61      C      0.253510000000     0.230490000000     0.963610000000     0.013148   
C62      C      0.217320000000     0.264000000000     0.948320000000     0.0238812  
C63      C      0.277310000000     0.149110000000     0.009450000000     0.0122323  
C64      C      0.241630000000     0.175320000000     0.973690000000    -0.0989977  
C65      C      0.709870000000     0.990770000000     0.854380000000     0.00633426 
C66      C      0.781440000000     0.022860000000     0.652370000000     0.0144651  
C67      C      0.853960000000     0.022710000000     0.715480000000     0.109878   
C68      C      0.748790000000     0.042730000000     0.694180000000    -0.109225   
C69      C      0.746780000000     0.964620000000     0.819370000000    -0.0982265  
C70      C      0.814910000000     0.034280000000     0.756290000000    -0.133763   
C71      C      0.736720000000     0.982190000000     0.766930000000     0.0125653  
C72      C      0.764200000000     0.017520000000     0.741820000000     0.0333562  
C73      C      0.647280000000     0.993040000000     0.783650000000     0.00588469 
C74      C      0.685980000000     0.966240000000     0.751220000000    -0.0979172  
C75      C      0.273610000000     0.002360000000     0.849110000000     0.012471   
C76      C      0.195890000000     0.999130000000     0.633170000000     0.0131637  
C77      C      0.131340000000     0.984590000000     0.701900000000     0.10633    
C78      C      0.233860000000     0.981280000000     0.671120000000    -0.105043   
C79      C      0.250380000000     0.032330000000     0.806320000000    -0.100286   
C80      C      0.168160000000     0.011730000000     0.735130000000    -0.127798   
C81      C      0.258610000000     0.005510000000     0.757280000000     0.0169241  
C82      C      0.222010000000     0.999580000000     0.723090000000     0.0242571  
C83      C      0.335800000000     0.964100000000     0.790350000000     0.0119579  
C84      C      0.312390000000     0.991700000000     0.746370000000    -0.102538   
C85      C      0.270710000000     0.022290000000     0.135270000000     0.0123765  
C86      C      0.178980000000     0.923190000000     0.330690000000     0.0124148  
C87      C      0.116930000000     0.936490000000     0.265820000000     0.110752   
C88      C      0.217160000000     0.956050000000     0.304280000000    -0.104099   
C89      C      0.233850000000     0.987670000000     0.161740000000    -0.100395   
C90      C      0.152290000000     0.968790000000     0.234050000000    -0.13221    
C91      C      0.243770000000     0.979810000000     0.217030000000     0.0133283  
C92      C      0.206520000000     0.965290000000     0.249370000000     0.024042   
C93      C      0.331210000000     0.013300000000     0.203220000000     0.0113945  
C94      C      0.297890000000     0.977500000000     0.232650000000    -0.0988284  
C95      C      0.845240000000     0.048850000000     0.279530000000     0.0116941  
C96      C      0.640270000000     0.970160000000     0.203340000000     0.00852489 
C97      C      0.706400000000     0.965770000000     0.139500000000     0.109563   
C98      C      0.668320000000     0.008280000000     0.233650000000    -0.101128   
C99      C      0.812900000000     0.020720000000     0.243520000000    -0.0964716  
C100     C      0.738080000000     0.003570000000     0.166890000000    -0.129342   
C101     C      0.757670000000     0.021820000000     0.256450000000     0.0123568  
C102     C      0.723620000000     0.008560000000     0.221580000000     0.0239407  
C103     C      0.778680000000     0.054850000000     0.342860000000     0.0101232  
C104     C      0.742060000000     0.026910000000     0.310940000000    -0.0962024  
C105     C      0.012320000000     0.143290000000     0.698860000000     0.0101489  
C106     C      0.999940000000     0.358130000000     0.773940000000     0.0143974  
C107     C      0.982750000000     0.285220000000     0.834430000000     0.108145   
C108     C      0.991950000000     0.320180000000     0.732950000000    -0.108163   
C109     C      0.047120000000     0.183090000000     0.718740000000    -0.0984477  
C110     C      0.016580000000     0.254070000000     0.800000000000    -0.131008   
C111     C      0.025340000000     0.235100000000     0.708850000000     0.012525   
C112     C      0.012000000000     0.268120000000     0.745460000000     0.0296414  
C113     C      0.982810000000     0.205430000000     0.633710000000     0.00913974 
C114     C      0.016690000000     0.245340000000     0.654070000000    -0.0977215  
C115     C      0.945270000000     0.789290000000     0.658700000000     0.00755734 
C116     C      0.949120000000     0.724010000000     0.865190000000     0.0114757  
C117     C      0.916580000000     0.663370000000     0.797720000000     0.110547   
C118     C      0.927930000000     0.767610000000     0.834280000000    -0.107767   
C119     C      0.970410000000     0.752510000000     0.694680000000    -0.100135   
C120     C      0.897240000000     0.710510000000     0.770740000000    -0.133517   
C121     C      0.964370000000     0.772160000000     0.746750000000     0.0158189  
C122     C      0.930440000000     0.753910000000     0.780360000000     0.0311545  
C123     C      0.966120000000     0.860300000000     0.717410000000     0.00799884 
C124     C      0.990340000000     0.821580000000     0.752280000000    -0.10079    
C125     C      0.937840000000     0.843210000000     0.280610000000     0.0105485  
C126     C      0.033800000000     0.639570000000     0.200480000000     0.0129393  
C127     C      0.033640000000     0.708090000000     0.138340000000     0.112778   
C128     C      0.998380000000     0.668420000000     0.235070000000    -0.10604    
C129     C      0.972430000000     0.814150000000     0.245780000000    -0.0981681  
C130     C      0.996470000000     0.739960000000     0.168030000000    -0.134014   
C131     C      0.976930000000     0.758100000000     0.258200000000     0.0122667  
C132     C      0.993230000000     0.724530000000     0.222800000000     0.0254196  
C133     C      0.939470000000     0.775740000000     0.344590000000     0.00925198 
C134     C      0.973790000000     0.742530000000     0.312990000000    -0.0978051  
C135     C      0.995920000000     0.123650000000     0.263020000000     0.00706228 
C136     C      0.037480000000     0.326530000000     0.182940000000     0.0155248  
C137     C      0.027070000000     0.264680000000     0.110890000000     0.106515   
C138     C      0.051650000000     0.279370000000     0.212210000000    -0.108469   
C139     C      0.966550000000     0.162990000000     0.232870000000    -0.0983418  
C140     C      0.007770000000     0.225230000000     0.148950000000    -0.130132   
C141     C      0.989340000000     0.214070000000     0.239880000000     0.0122138  
C142     C      0.014600000000     0.238780000000     0.202820000000     0.0314217  
C143     C      0.020230000000     0.191660000000     0.322880000000     0.00890959 
C144     C      0.988870000000     0.229320000000     0.293640000000    -0.0996838  
H1       H      0.921240000000     0.080960000000     0.558400000000     0.203508   
H2       H      0.068300000000     0.050530000000     0.408210000000     0.20091    
H3       H      0.049110000000     0.904310000000     0.561900000000     0.206299   
H4       H      0.891680000000     0.924200000000     0.423300000000     0.198856   
H5       H      0.096350000000     0.132430000000     0.470720000000     0.123268   
H6       H      0.163330000000     0.051200000000     0.466070000000     0.181519   
H7       H      0.119860000000     0.875310000000     0.468570000000     0.144997   
H8       H      0.037960000000     0.807360000000     0.527990000000     0.195345   
H9       H      0.870130000000     0.843980000000     0.499620000000     0.12478    
H10      H      0.805710000000     0.924510000000     0.481400000000     0.180443   
H11      H      0.846340000000     0.105370000000     0.479050000000     0.141155   
H12      H      0.917750000000     0.165860000000     0.506420000000     0.18829    
H13      H      0.040380000000     0.808980000000     0.465980000000     0.198812   
H14      H      0.776220000000     0.971720000000     0.510090000000     0.200216   
H15      H      0.944920000000     0.186670000000     0.454210000000     0.200894   
H16      H      0.192850000000     0.996440000000     0.475850000000     0.19766    
H17      H      0.927400000000     0.557890000000     0.085020000000     0.206897   
H18      H      0.898000000000     0.420890000000     0.927210000000     0.201382   
H19      H      0.038680000000     0.574670000000     0.900060000000     0.207713   
H20      H      0.083130000000     0.419200000000     0.039590000000     0.20099    
H21      H      0.809600000000     0.486350000000     0.941290000000     0.123731   
H22      H      0.857090000000     0.506840000000     0.850700000000     0.183984   
H23      H      0.036220000000     0.498600000000     0.814900000000     0.135272   
H24      H      0.118060000000     0.503440000000     0.858090000000     0.187413   
H25      H      0.157960000000     0.507120000000     0.041820000000     0.127604   
H26      H      0.114310000000     0.478360000000     0.130320000000     0.181921   
H27      H      0.939130000000     0.454080000000     0.156590000000     0.145875   
H28      H      0.838400000000     0.514920000000     0.109730000000     0.195457   
H29      H      0.167500000000     0.520090000000     0.890320000000     0.198258   
H30      H      0.075820000000     0.487160000000     0.178600000000     0.199328   
H31      H      0.847920000000     0.452760000000     0.110450000000     0.199133   
H32      H      0.891520000000     0.479290000000     0.806540000000     0.196981   
H33      H      0.421760000000     0.075710000000     0.068000000000     0.206525   
H34      H      0.558920000000     0.912240000000     0.071700000000     0.202573   
H35      H      0.417470000000     0.919640000000     0.919770000000     0.207066   
H36      H      0.567140000000     0.068250000000     0.915220000000     0.201317   
H37      H      0.489170000000     0.905060000000     0.156790000000     0.123786   
H38      H      0.490380000000     0.823880000000     0.088670000000     0.18189    
H39      H      0.507830000000     0.839070000000     0.908050000000     0.143698   
H40      H      0.460890000000     0.910390000000     0.824700000000     0.195232   
H41      H      0.506830000000     0.081800000000     0.830300000000     0.123082   
H42      H      0.497370000000     0.160550000000     0.895330000000     0.183452   
H43      H      0.510110000000     0.145400000000     0.081580000000     0.140938   
H44      H      0.462330000000     0.081490000000     0.161130000000     0.193186   
H45      H      0.522610000000     0.908580000000     0.826140000000     0.199103   
H46      H      0.503650000000     0.200620000000     0.942070000000     0.198338   
H47      H      0.524040000000     0.076940000000     0.160230000000     0.197698   
H48      H      0.481250000000     0.785800000000     0.040850000000     0.197618   
H49      H      0.699160000000     0.669030000000     0.049830000000     0.0430059  
H50      H      0.707810000000     0.850740000000     0.032220000000     0.0271545  
H51      H      0.842140000000     0.720510000000     0.984220000000     0.0317043  
H52      H      0.812020000000     0.784390000000     0.043420000000     0.0418799  
H53      H      0.777190000000     0.817940000000     0.983010000000     0.0431739  
H54      H      0.668650000000     0.698040000000     0.984640000000     0.054712   
H55      H      0.767170000000     0.604060000000     0.046430000000     0.0366529  
H56      H      0.708520000000     0.879150000000     0.971840000000     0.0362116  
H57      H      0.805340000000     0.739130000000     0.090690000000     0.0475899  
H58      H      0.683280000000     0.736320000000     0.933530000000     0.0591498  
H59      H      0.876250000000     0.715750000000     0.040470000000     0.0350939  
H60      H      0.623740000000     0.763570000000     0.026690000000     0.0096922  
H61      H      0.745190000000     0.677290000000     0.093960000000     0.0476524  
H62      H      0.738710000000     0.803560000000     0.933340000000     0.0493482  
H63      H      0.760660000000     0.637080000000     0.988690000000     0.0324457  
H64      H      0.595630000000     0.785660000000     0.922960000000     0.0897177  
H65      H      0.560730000000     0.762470000000     0.972710000000     0.091556   
H66      H      0.719490000000     0.303240000000     0.999420000000     0.0432852  
H67      H      0.713570000000     0.139920000000     0.945010000000     0.0258336  
H68      H      0.860640000000     0.252190000000     0.056840000000     0.0282628  
H69      H      0.842570000000     0.193490000000     0.993100000000     0.0415693  
H70      H      0.787610000000     0.139390000000     0.992160000000     0.04229    
H71      H      0.691750000000     0.256220000000     0.056150000000     0.0562538  
H72      H      0.778350000000     0.367330000000     0.023490000000     0.0395179  
H73      H      0.715350000000     0.085850000000     0.984470000000     0.0366375  
H74      H      0.835500000000     0.241320000000     0.946550000000     0.0485952  
H75      H      0.697900000000     0.195990000000     0.082430000000     0.0590953  
H76      H      0.900510000000     0.262840000000     0.004480000000     0.0393434  
H77      H      0.651490000000     0.219850000000     0.981400000000     0.00718458 
H78      H      0.767220000000     0.307870000000     0.954870000000     0.0496284  
H79      H      0.755820000000     0.130900000000     0.050050000000     0.0488162  
H80      H      0.782010000000     0.316120000000     0.067220000000     0.0280949  
H81      H      0.602580000000     0.179020000000     0.073040000000     0.0916143  
H82      H      0.577900000000     0.214610000000     0.023970000000     0.0958342  
H83      H      0.138640000000     0.784110000000     0.008480000000     0.0426891  
H84      H      0.318180000000     0.786940000000     0.056850000000     0.0273346  
H85      H      0.179940000000     0.686920000000     0.895410000000     0.0255073  
H86      H      0.251720000000     0.682970000000     0.945240000000     0.0420212  
H87      H      0.300290000000     0.718620000000     0.002330000000     0.0450802  
H88      H      0.223790000000     0.825290000000     0.049930000000     0.0546147  
H89      H      0.075170000000     0.728060000000     0.978250000000     0.0359603  
H90      H      0.365350000000     0.779610000000     0.010410000000     0.0348982  
H91      H      0.218980000000     0.658440000000     0.998560000000     0.0518955  
H92      H      0.191880000000     0.838980000000     0.993100000000     0.0554207  
H93      H      0.185950000000     0.625160000000     0.921680000000     0.0330078  
H94      H      0.259000000000     0.898210000000     0.011580000000     0.0192322  
H95      H      0.144340000000     0.724100000000     0.037120000000     0.0505337  
H96      H      0.304440000000     0.758330000000     0.947640000000     0.0499428  
H97      H      0.116190000000     0.747540000000     0.929140000000     0.0276796  
H98      H      0.275250000000     0.842550000000     0.917660000000     0.0861159  
H99      H      0.280790000000     0.905430000000     0.928140000000     0.094306   
H100     H      0.314220000000     0.284110000000     0.968550000000     0.042099   
H101     H      0.130670000000     0.270630000000     0.882440000000     0.0242052  
H102     H      0.268920000000     0.162610000000     0.047550000000     0.0258262  
H103     H      0.204520000000     0.170700000000     0.990930000000     0.0417936  
H104     H      0.156290000000     0.211480000000     0.940960000000     0.0427749  
H105     H      0.265600000000     0.321140000000     0.915540000000     0.0544287  
H106     H      0.380040000000     0.222040000000     0.987410000000     0.0377667  
H107     H      0.089010000000     0.275960000000     0.933790000000     0.0382819  
H108     H      0.242430000000     0.155260000000     0.937820000000     0.0511527  
H109     H      0.233450000000     0.338950000000     0.971890000000     0.0581629  
H110     H      0.269990000000     0.108180000000     0.009450000000     0.0383915  
H111     H      0.194750000000     0.327700000000     0.866490000000     0.00831959 
H112     H      0.321720000000     0.236800000000     0.921870000000     0.0506255  
H113     H      0.151240000000     0.253540000000     0.992620000000     0.0490592  
H114     H      0.333480000000     0.229620000000     0.034680000000     0.0284765  
H115     H      0.209060000000     0.416980000000     0.930050000000     0.0985947  
H116     H      0.180380000000     0.416600000000     0.872080000000     0.094453   
H117     H      0.784720000000     0.970230000000     0.832420000000     0.0407279  
H118     H      0.770550000000     0.983730000000     0.644200000000     0.028775   
H119     H      0.646820000000     0.033680000000     0.773720000000     0.0301331  
H120     H      0.678300000000     0.971930000000     0.711370000000     0.0417516  
H121     H      0.709360000000     0.038990000000     0.684990000000     0.0451813  
H122     H      0.828540000000     0.018450000000     0.791580000000     0.0541508  
H123     H      0.714580000000     0.974000000000     0.892010000000     0.0381072  
H124     H      0.773530000000     0.045720000000     0.618500000000     0.0352717  
H125     H      0.682450000000     0.925090000000     0.757450000000     0.0484375  
H126     H      0.812690000000     0.075510000000     0.762270000000     0.0586077  
H127     H      0.610430000000     0.977990000000     0.774490000000     0.0362339  
H128     H      0.868670000000     0.984200000000     0.723380000000     0.0139058  
H129     H      0.741060000000     0.923420000000     0.822120000000     0.0485608  
H130     H      0.754380000000     0.083890000000     0.696950000000     0.0502098  
H131     H      0.719670000000     0.031070000000     0.856740000000     0.029533   
H132     H      0.890360000000     0.089470000000     0.697120000000     0.0905802  
H133     H      0.929120000000     0.041150000000     0.717070000000     0.0984724  
H134     H      0.211280000000     0.040190000000     0.816040000000     0.0422956  
H135     H      0.199210000000     0.040390000000     0.627610000000     0.030431   
H136     H      0.319580000000     0.925990000000     0.793080000000     0.0233225  
H137     H      0.317290000000     0.966310000000     0.714440000000     0.0427898  
H138     H      0.269660000000     0.996330000000     0.657410000000     0.0430988  
H139     H      0.162350000000     0.052950000000     0.731070000000     0.0542639  
H140     H      0.269650000000     0.024650000000     0.883540000000     0.0373037  
H141     H      0.205580000000     0.981480000000     0.597130000000     0.0346562  
H142     H      0.333160000000     0.026590000000     0.738120000000     0.0546396  
H143     H      0.158660000000     0.000610000000     0.773870000000     0.0558153  
H144     H      0.375920000000     0.958840000000     0.782470000000     0.0322607  
H145     H      0.094710000000     0.002880000000     0.708840000000     0.0209062  
H146     H      0.268510000000     0.069470000000     0.803520000000     0.0522372  
H147     H      0.236260000000     0.939640000000     0.671490000000     0.0481475  
H148     H      0.252870000000     0.966910000000     0.854610000000     0.0273317  
H149     H      0.159360000000     0.911740000000     0.707790000000     0.0859002  
H150     H      0.096760000000     0.915740000000     0.700440000000     0.0892599  
H151     H      0.197090000000     0.005250000000     0.155310000000     0.042964   
H152     H      0.184000000000     0.884060000000     0.317390000000     0.0248094  
H153     H      0.323010000000     0.052260000000     0.215540000000     0.0245843  
H154     H      0.302270000000     0.988100000000     0.271970000000     0.0418574  
H155     H      0.253000000000     0.936090000000     0.309390000000     0.0431033  
H156     H      0.147700000000     0.955870000000     0.195440000000     0.0535355  
H157     H      0.265070000000     0.019880000000     0.094650000000     0.0383661  
H158     H      0.187140000000     0.922210000000     0.370950000000     0.0336211  
H159     H      0.311890000000     0.938430000000     0.228050000000     0.0525741  
H160     H      0.140490000000     0.008850000000     0.235950000000     0.0579439  
H161     H      0.370270000000     0.004670000000     0.212660000000     0.0383089  
H162     H      0.123990000000     0.896820000000     0.254880000000     0.00791736 
H163     H      0.234860000000     0.950450000000     0.143600000000     0.0517455  
H164     H      0.218650000000     0.992850000000     0.323100000000     0.0493599  
H165     H      0.261940000000     0.061620000000     0.146040000000     0.0252193  
H166     H      0.056410000000     0.986320000000     0.259780000000     0.0968855  
H167     H      0.040960000000     0.922990000000     0.268440000000     0.0994053  
H168     H      0.820010000000     0.038590000000     0.206740000000     0.0409062  
H169     H      0.650920000000     0.931830000000     0.216550000000     0.0254924  
H170     H      0.774710000000     0.095760000000     0.334790000000     0.0276061  
H171     H      0.706670000000     0.048210000000     0.314350000000     0.0416704  
H172     H      0.660460000000     0.998070000000     0.272900000000     0.0418069  
H173     H      0.776690000000     0.990040000000     0.161790000000     0.052359   
H174     H      0.884590000000     0.038700000000     0.272230000000     0.0382163  
H175     H      0.600190000000     0.974960000000     0.211600000000     0.0383609  
H176     H      0.736830000000     0.988660000000     0.326920000000     0.0470075  
H177     H      0.734520000000     0.041220000000     0.148940000000     0.0576605  
H178     H      0.768610000000     0.048760000000     0.382530000000     0.0374413  
H179     H      0.716340000000     0.927980000000     0.154830000000     0.00711042 
H180     H      0.825600000000     0.980910000000     0.242240000000     0.0484778  
H181     H      0.652810000000     0.046450000000     0.226380000000     0.049526   
H182     H      0.841150000000     0.089790000000     0.271620000000     0.0259475  
H183     H      0.715140000000     0.001190000000     0.069830000000     0.100311   
H184     H      0.704680000000     0.936280000000     0.067980000000     0.0966266  
H185     H      0.055770000000     0.174670000000     0.757960000000     0.0412413  
H186     H      0.039720000000     0.368100000000     0.774530000000     0.0294352  
H187     H      0.945430000000     0.210780000000     0.650640000000     0.0240464  
H188     H      0.999460000000     0.282130000000     0.645200000000     0.0413835  
H189     H      0.011310000000     0.336290000000     0.700040000000     0.0445667  
H190     H      0.055640000000     0.259100000000     0.810940000000     0.0552655  
H191     H      0.030090000000     0.105710000000     0.703700000000     0.0364199  
H192     H      0.979220000000     0.393090000000     0.764010000000     0.0317239  
H193     H      0.052750000000     0.243800000000     0.633900000000     0.0533619  
H194     H      0.006670000000     0.214260000000     0.806810000000     0.0563354  
H195     H      0.978910000000     0.211830000000     0.593150000000     0.035054   
H196     H      0.995330000000     0.276540000000     0.872770000000     0.0208429  
H197     H      0.083030000000     0.180010000000     0.698440000000     0.0511027  
H198     H      0.951940000000     0.317830000000     0.724740000000     0.0468204  
H199     H      0.977470000000     0.143870000000     0.721180000000     0.0283359  
H200     H      0.916450000000     0.278750000000     0.796970000000     0.0843224  
H201     H      0.910320000000     0.284460000000     0.859810000000     0.0851624  
H202     H      0.957150000000     0.713840000000     0.689650000000     0.0443249  
H203     H      0.990150000000     0.726160000000     0.863920000000     0.0311551  
H204     H      0.928340000000     0.869210000000     0.731740000000     0.0313527  
H205     H      0.990710000000     0.836580000000     0.790180000000     0.0424915  
H206     H      0.946950000000     0.802430000000     0.843940000000     0.0434016  
H207     H      0.891240000000     0.703110000000     0.731000000000     0.0556656  
H208     H      0.952640000000     0.776070000000     0.620370000000     0.0381875  
H209     H      0.937850000000     0.729990000000     0.904530000000     0.0363761  
H210     H      0.029840000000     0.816830000000     0.741210000000     0.0493271  
H211     H      0.859650000000     0.719980000000     0.785370000000     0.0592786  
H212     H      0.987840000000     0.895340000000     0.719010000000     0.0376422  
H213     H      0.948200000000     0.648240000000     0.775390000000     0.0149147  
H214     H      0.010470000000     0.750590000000     0.685050000000     0.0494962  
H215     H      0.888680000000     0.773980000000     0.845520000000     0.0479282  
H216     H      0.904650000000     0.788090000000     0.665190000000     0.0320093  
H217     H      0.855610000000     0.627920000000     0.830880000000     0.0899492  
H218     H      0.889840000000     0.590320000000     0.790600000000     0.0958359  
H219     H      0.957140000000     0.820630000000     0.208250000000     0.0415243  
H220     H      0.072380000000     0.648900000000     0.210380000000     0.0252262  
H221     H      0.900590000000     0.766000000000     0.336380000000     0.0271925  
H222     H      0.959340000000     0.703930000000     0.317530000000     0.0420598  
H223     H      0.013030000000     0.662080000000     0.272900000000     0.0439835  
H224     H      0.009120000000     0.779180000000     0.163250000000     0.0547681  
H225     H      0.942100000000     0.884030000000     0.273130000000     0.0352315  
H226     H      0.029210000000     0.598780000000     0.207950000000     0.035557   
H227     H      0.011590000000     0.743320000000     0.328540000000     0.0490744  
H228     H      0.959090000000     0.736880000000     0.151820000000     0.0589604  
H229     H      0.945760000000     0.766650000000     0.384350000000     0.0376903  
H230     H      0.070870000000     0.717540000000     0.152460000000     0.00791451 
H231     H      0.009850000000     0.830750000000     0.246920000000     0.0501859  
H232     H      0.961170000000     0.651420000000     0.233390000000     0.0514967  
H233     H      0.899110000000     0.833710000000     0.271470000000     0.0253975  
H234     H      0.997790000000     0.722470000000     0.070820000000     0.0977602  
H235     H      0.059460000000     0.702450000000     0.065420000000     0.0991673  
H236     H      0.965380000000     0.150820000000     0.193790000000     0.0405778  
H237     H      0.004260000000     0.344220000000     0.200490000000     0.0312185  
H238     H      0.059280000000     0.194440000000     0.309870000000     0.0269039  
H239     H      0.000230000000     0.268280000000     0.300450000000     0.0425341  
H240     H      0.056340000000     0.289300000000     0.251430000000     0.0441008  
H241     H      0.967460000000     0.221310000000     0.142550000000     0.0528791  
H242     H      0.976380000000     0.087320000000     0.261000000000     0.0370934  
H243     H      0.067910000000     0.354010000000     0.185630000000     0.0279662  
H244     H      0.950240000000     0.227550000000     0.308090000000     0.049964   
H245     H      0.025670000000     0.188200000000     0.141730000000     0.0561239  
H246     H      0.019110000000     0.202570000000     0.362490000000     0.0357527  
H247     H      0.001870000000     0.262500000000     0.078660000000     0.0216165  
H248     H      0.927680000000     0.163990000000     0.246720000000     0.0486102  
H249     H      0.088740000000     0.265840000000     0.200150000000     0.0479247  
H250     H      0.032850000000     0.118420000000     0.245130000000     0.0276176  
H251     H      0.103270000000     0.256750000000     0.119290000000     0.0825675  
H252     H      0.085010000000     0.271540000000     0.060570000000     0.0883074  
N1       N      0.649320000000     0.827430000000     0.986480000000    -0.182274   
N2       N      0.825320000000     0.655850000000     0.027820000000    -0.170114   
N3       N      0.595040000000     0.762300000000     0.954440000000    -0.199065   
N4       N      0.660890000000     0.143310000000     0.003590000000    -0.182097   
N5       N      0.843270000000     0.319080000000     0.017380000000    -0.170546   
N6       N      0.608590000000     0.206970000000     0.046100000000    -0.199922   
N7       N      0.317680000000     0.844880000000     0.002610000000    -0.183508   
N8       N      0.127540000000     0.672060000000     0.952230000000    -0.171829   
N9       N      0.261910000000     0.872850000000     0.938370000000    -0.199641   
N10      N      0.141340000000     0.336450000000     0.923910000000    -0.182458   
N11      N      0.328870000000     0.161080000000     0.996830000000    -0.16989    
N12      N      0.204490000000     0.398350000000     0.896560000000    -0.202046   
N13      N      0.835070000000     0.023230000000     0.663450000000    -0.181794   
N14      N      0.658010000000     0.987360000000     0.837320000000    -0.169781   
N15      N      0.894400000000     0.058410000000     0.720930000000    -0.200402   
N16      N      0.144610000000     0.988120000000     0.648530000000    -0.182672   
N17      N      0.325670000000     0.990210000000     0.837340000000    -0.17188    
N18      N      0.127250000000     0.931840000000     0.717220000000    -0.199098   
N19      N      0.128560000000     0.940930000000     0.319290000000    -0.183119   
N20      N      0.321660000000     0.010160000000     0.149880000000    -0.170315   
N21      N      0.065710000000     0.948790000000     0.252930000000    -0.202343   
N22      N      0.653020000000     0.975230000000     0.150190000000    -0.183146   
N23      N      0.829420000000     0.038780000000     0.330890000000    -0.17073    
N24      N      0.720400000000     0.966030000000     0.086810000000    -0.20289    
N25      N      0.985450000000     0.339750000000     0.823780000000    -0.184476   
N26      N      0.000820000000     0.154340000000     0.646440000000    -0.171169   
N27      N      0.931530000000     0.268620000000     0.831190000000    -0.199028   
N28      N      0.934630000000     0.673070000000     0.849000000000    -0.181264   
N29      N      0.962180000000     0.841390000000     0.666020000000    -0.169966   
N30      N      0.876690000000     0.626510000000     0.798120000000    -0.20045    
N31      N      0.025370000000     0.653910000000     0.148310000000    -0.182565   
N32      N      0.946920000000     0.829000000000     0.332520000000    -0.170702   
N33      N      0.033220000000     0.722890000000     0.085830000000    -0.202797   
N34      N      0.027140000000     0.316690000000     0.130290000000    -0.183495   
N35      N      0.002930000000     0.139880000000     0.314830000000    -0.170361   
N36      N      0.076500000000     0.250690000000     0.092600000000    -0.199801   
O1       O      0.847000000000     0.022290000000     0.412230000000    -0.360242   
O2       O      0.905540000000     0.008460000000     0.352140000000    -0.355303   
O3       O      0.001310000000     0.130930000000     0.565530000000    -0.360893   
O4       O      0.997890000000     0.071270000000     0.627010000000    -0.356149   
O5       O      0.003050000000     0.123750000000     0.398240000000    -0.3661     
O6       O      0.989860000000     0.060160000000     0.344340000000    -0.354656   
O7       O      0.849980000000     0.014510000000     0.579980000000    -0.358101   
O8       O      0.913760000000     0.008450000000     0.634230000000    -0.356648   
O9       O      0.829020000000     0.079930000000     0.499660000000    -0.338254   
O10      O      0.806050000000     0.957600000000     0.495610000000    -0.518313   
O11      O      0.942630000000     0.162010000000     0.480690000000    -0.511118   
O12      O      0.066710000000     0.152620000000     0.479790000000    -0.333515   
O13      O      0.934270000000     0.053280000000     0.440380000000    -0.466124   
O14      O      0.937960000000     0.056650000000     0.537660000000    -0.611787   
O15      O      0.960690000000     0.856470000000     0.582100000000    -0.358504   
O16      O      0.977360000000     0.919960000000     0.635150000000    -0.358004   
O17      O      0.113940000000     0.957220000000     0.401460000000    -0.366466   
O18      O      0.051240000000     0.965880000000     0.346670000000    -0.360884   
O19      O      0.122680000000     0.983910000000     0.567040000000    -0.355514   
O20      O      0.063060000000     0.984960000000     0.627700000000    -0.357934   
O21      O      0.956390000000     0.849460000000     0.414120000000    -0.360615   
O22      O      0.962980000000     0.909880000000     0.353620000000    -0.359379   
O23      O      0.026710000000     0.821350000000     0.496830000000    -0.513389   
O24      O      0.901490000000     0.824570000000     0.501740000000    -0.33026    
O25      O      0.129830000000     0.896230000000     0.496720000000    -0.345928   
O26      O      0.162430000000     0.015660000000     0.473530000000    -0.510901   
O27      O      0.031280000000     0.926830000000     0.539980000000    -0.607804   
O28      O      0.027640000000     0.923100000000     0.441890000000    -0.467826   
O29      O      0.919940000000     0.944440000000     0.548980000000    -0.474637   
O30      O      0.045750000000     0.035180000000     0.431770000000    -0.622437   
O31      O      0.915930000000     0.940930000000     0.442950000000    -0.62209    
O32      O      0.049600000000     0.039920000000     0.537380000000    -0.473808   
O33      O      0.020810000000     0.401590000000     0.117170000000    -0.365313   
O34      O      0.010260000000     0.347880000000     0.052960000000    -0.359742   
O35      O      0.847600000000     0.573070000000     0.020150000000    -0.359451   
O36      O      0.906370000000     0.633740000000     0.015040000000    -0.356425   
O37      O      0.856880000000     0.403640000000     0.015470000000    -0.363287   
O38      O      0.920520000000     0.348850000000     0.999880000000    -0.35686    
O39      O      0.020770000000     0.571370000000     0.126050000000    -0.356907   
O40      O      0.000210000000     0.632740000000     0.070290000000    -0.359258   
O41      O      0.957220000000     0.485920000000     0.159650000000    -0.344148   
O42      O      0.081280000000     0.483960000000     0.143300000000    -0.513277   
O43      O      0.850350000000     0.484880000000     0.093600000000    -0.51374    
O44      O      0.804080000000     0.487950000000     0.977590000000    -0.331134   
O45      O      0.947880000000     0.439040000000     0.053420000000    -0.469387   
O46      O      0.943250000000     0.538390000000     0.059250000000    -0.608151   
O47      O      0.114750000000     0.587560000000     0.957130000000    -0.362017   
O48      O      0.051980000000     0.642390000000     0.975860000000    -0.359141   
O49      O      0.975720000000     0.420900000000     0.849100000000    -0.36514    
O50      O      0.980060000000     0.357390000000     0.906360000000    -0.358804   
O51      O      0.945110000000     0.588380000000     0.861950000000    -0.357722   
O52      O      0.960950000000     0.642730000000     0.924210000000    -0.354171   
O53      O      0.121630000000     0.418450000000     0.942860000000    -0.360525   
O54      O      0.065220000000     0.357170000000     0.956120000000    -0.355552   
O55      O      0.133290000000     0.510230000000     0.889450000000    -0.50912    
O56      O      0.166010000000     0.498550000000     0.007010000000    -0.345544   
O57      O      0.005070000000     0.518240000000     0.812120000000    -0.336802   
O58      O      0.888720000000     0.494350000000     0.838860000000    -0.523148   
O59      O      0.025210000000     0.550960000000     0.923840000000    -0.611225   
O60      O      0.030210000000     0.452720000000     0.917960000000    -0.46709    
O61      O      0.052950000000     0.548440000000     0.033390000000    -0.477079   
O62      O      0.920700000000     0.442590000000     0.943750000000    -0.622157   
O63      O      0.057760000000     0.441400000000     0.026650000000    -0.621215   
O64      O      0.915530000000     0.549550000000     0.950480000000    -0.477217   
O65      O      0.577750000000     0.128650000000     0.997060000000    -0.366646   
O66      O      0.632660000000     0.063200000000     0.996740000000    -0.359797   
O67      O      0.403930000000     0.999160000000     0.131530000000    -0.360559   
O68      O      0.347800000000     0.004710000000     0.069170000000    -0.352623   
O69      O      0.570990000000     0.985310000000     0.131570000000    -0.365861   
O70      O      0.628420000000     0.984710000000     0.069360000000    -0.361793   
O71      O      0.410580000000     0.138220000000     0.990070000000    -0.354454   
O72      O      0.351270000000     0.078170000000     0.994570000000    -0.354357   
O73      O      0.490320000000     0.160430000000     0.054460000000    -0.340942   
O74      O      0.499230000000     0.166850000000     0.930450000000    -0.51684    
O75      O      0.492300000000     0.064730000000     0.150110000000    -0.515074   
O76      O      0.483690000000     0.939330000000     0.169670000000    -0.330564   
O77      O      0.539690000000     0.049020000000     0.048270000000    -0.467448   
O78      O      0.442250000000     0.053760000000     0.048000000000    -0.609909   
O79      O      0.407540000000     0.992530000000     0.856160000000    -0.361349   
O80      O      0.349180000000     0.000080000000     0.917670000000    -0.354098   
O81      O      0.567440000000     0.850700000000     0.993380000000    -0.367932   
O82      O      0.626800000000     0.910520000000     0.990070000000    -0.358479   
O83      O      0.400620000000     0.859770000000     0.004330000000    -0.358434   
O84      O      0.345920000000     0.925070000000     0.995050000000    -0.35975    
O85      O      0.574980000000     0.990820000000     0.855400000000    -0.364032   
O86      O      0.630950000000     0.987060000000     0.917990000000    -0.356357   
O87      O      0.491600000000     0.924120000000     0.835930000000    -0.511812   
O88      O      0.491830000000     0.050570000000     0.818380000000    -0.331275   
O89      O      0.478410000000     0.832640000000     0.929270000000    -0.346886   
O90      O      0.485610000000     0.819150000000     0.053610000000    -0.513238   
O91      O      0.439200000000     0.939820000000     0.939200000000    -0.609574   
O92      O      0.536910000000     0.934490000000     0.938880000000    -0.469435   
O93      O      0.439030000000     0.054360000000     0.934570000000    -0.474476   
O94      O      0.538700000000     0.934420000000     0.051620000000    -0.623154   
O95      O      0.544550000000     0.048720000000     0.935400000000    -0.622344   
O96      O      0.433280000000     0.940010000000     0.052100000000    -0.473504   
Zr1      Zr     0.881230000000     0.005040000000     0.494650000000     1.29313    
Zr2      Zr     0.000120000000     0.092180000000     0.483860000000     1.29608    
Zr3      Zr     0.965430000000     0.887800000000     0.496010000000     1.28626    
Zr4      Zr     0.084230000000     0.974910000000     0.485910000000     1.28819    
Zr5      Zr     0.979390000000     0.986700000000     0.397380000000     1.26408    
Zr6      Zr     0.986360000000     0.993670000000     0.582720000000     1.26128    
Zr7      Zr     0.012430000000     0.488890000000     0.087670000000     1.28853    
Zr8      Zr     0.886800000000     0.490030000000     0.011700000000     1.29153    
Zr9      Zr     0.086660000000     0.500690000000     0.965600000000     1.28837    
Zr10     Zr     0.960750000000     0.501750000000     0.889640000000     1.28813    
Zr11     Zr     0.991150000000     0.401720000000     0.982820000000     1.26723    
Zr12     Zr     0.982270000000     0.589050000000     0.994250000000     1.26078    
Zr13     Zr     0.492980000000     0.098230000000     0.989110000000     1.28773    
Zr14     Zr     0.488000000000     0.993380000000     0.096380000000     1.28959    
Zr15     Zr     0.490780000000     0.995000000000     0.890670000000     1.28901    
Zr16     Zr     0.485220000000     0.890530000000     0.997910000000     1.29072    
Zr17     Zr     0.581620000000     0.989490000000     0.993560000000     1.2664     
Zr18     Zr     0.396730000000     0.999300000000     0.993430000000     1.2619     


