data_structure

_audit_creation_method RASPA-1.0
_audit_creation_date 2023-6-5
_audit_author_name 'Poobodin Mano'

_cell_length_a    26.0069
_cell_length_b    25.8993
_cell_length_c    26.8236
_cell_angle_alpha 89.2565
_cell_angle_beta  89.2563
_cell_angle_gamma 89.2563
_cell_volume      18062.8

_symmetry_cell_setting          triclinic
_symmetry_space_group_name_Hall 'P 1'
_symmetry_space_group_name_H-M  'P 1'
_symmetry_Int_Tables_number     1

_symmetry_equiv_pos_as_xyz 'x,y,z'

loop_
_atom_site_label
_atom_site_type_symbol
_atom_site_fract_x
_atom_site_fract_y
_atom_site_fract_z
_atom_site_charge
C1       C      0.875550000000     0.014300000000     0.359580000000     0.383422   
C2       C      0.973440000000     0.117940000000     0.629090000000     0.379456   
C3       C      0.994900000000     0.141210000000     0.370110000000     0.377259   
C4       C      0.867760000000     0.981120000000     0.617720000000     0.380166   
C5       C      0.988880000000     0.866530000000     0.613080000000     0.380463   
C6       C      0.129060000000     0.023140000000     0.366040000000     0.377379   
C7       C      0.119670000000     0.000220000000     0.625400000000     0.375909   
C8       C      0.005760000000     0.887590000000     0.354270000000     0.377597   
C9       C      0.075890000000     0.394730000000     0.125170000000     0.38175    
C10      C      0.889200000000     0.644650000000     0.031260000000     0.379623   
C11      C      0.906170000000     0.376890000000     0.068350000000     0.378975   
C12      C      0.066080000000     0.660390000000     0.085800000000     0.386085   
C13      C      0.116500000000     0.642740000000     0.921670000000     0.38257    
C14      C      0.992220000000     0.361160000000     0.899890000000     0.388239   
C15      C      0.952890000000     0.625250000000     0.869100000000     0.379592   
C16      C      0.137110000000     0.376550000000     0.965080000000     0.375396   
C17      C      0.644530000000     0.127880000000     0.010450000000     0.374608   
C18      C      0.386610000000     0.958480000000     0.117570000000     0.383222   
C19      C      0.653430000000     0.957900000000     0.091420000000     0.376243   
C20      C      0.377440000000     0.128520000000     0.032270000000     0.382634   
C21      C      0.363870000000     0.050920000000     0.888260000000     0.380748   
C22      C      0.639620000000     0.884880000000     0.936430000000     0.383163   
C23      C      0.375760000000     0.880490000000     0.980490000000     0.384369   
C24      C      0.630980000000     0.044770000000     0.860040000000     0.379539   
C25      C      0.869210000000     0.738370000000     0.039430000000     0.0132261  
C26      C      0.665710000000     0.794650000000     0.919350000000     0.0116363  
C27      C      0.731530000000     0.861120000000     0.910780000000     0.101859   
C28      C      0.692890000000     0.767650000000     0.962980000000    -0.102559   
C29      C      0.839700000000     0.766960000000     0.998320000000    -0.0979147  
C30      C      0.763590000000     0.839270000000     0.954080000000    -0.131572   
C31      C      0.782870000000     0.752560000000     0.995160000000     0.0128727  
C32      C      0.749050000000     0.783780000000     0.969070000000     0.0235305  
C33      C      0.800550000000     0.674620000000     0.053160000000     0.0106205  
C34      C      0.767130000000     0.698080000000     0.011920000000    -0.0964781  
C35      C      0.744290000000     0.917680000000     0.898340000000    -0.196955   
C36      C      0.670730000000     0.219130000000     0.018390000000     0.0104906  
C37      C      0.894010000000     0.283430000000     0.086300000000     0.0104299  
C38      C      0.826280000000     0.343530000000     0.114530000000     0.0984551  
C39      C      0.856350000000     0.251960000000     0.055560000000    -0.102234   
C40      C      0.704750000000     0.243510000000     0.057390000000    -0.0985221  
C41      C      0.784740000000     0.318710000000     0.082830000000    -0.130031   
C42      C      0.761750000000     0.230910000000     0.049700000000     0.0123244  
C43      C      0.799250000000     0.264300000000     0.065160000000     0.0223421  
C44      C      0.736500000000     0.151360000000     0.999080000000     0.00909226 
C45      C      0.774840000000     0.175330000000     0.035000000000    -0.0976826  
C46      C      0.810270000000     0.398450000000     0.130250000000    -0.194144   
C47      C      0.285170000000     0.856670000000     0.998980000000     0.0112329  
C48      C      0.196850000000     0.667700000000     0.877840000000     0.0136762  
C49      C      0.132920000000     0.735870000000     0.893480000000     0.0963119  
C50      C      0.236820000000     0.692410000000     0.911220000000    -0.103405   
C51      C      0.247870000000     0.834440000000     0.961530000000    -0.0978345  
C52      C      0.166740000000     0.764250000000     0.930250000000    -0.129771   
C53      C      0.260700000000     0.778880000000     0.946310000000     0.013377   
C54      C      0.223470000000     0.747840000000     0.927050000000     0.0247391  
C55      C      0.350440000000     0.788340000000     0.982110000000     0.0124506  
C56      C      0.317490000000     0.763230000000     0.942760000000    -0.0991627  
C57      C      0.076080000000     0.752740000000     0.898550000000    -0.178191   
C58      C      0.154860000000     0.283310000000     0.964280000000     0.00942557 
C59      C      0.352600000000     0.219970000000     0.038450000000     0.0144274  
C60      C      0.285300000000     0.149020000000     0.049980000000     0.0954697  
C61      C      0.306090000000     0.255960000000     0.031140000000    -0.106591   
C62      C      0.191790000000     0.243890000000     0.940710000000    -0.100363   
C63      C      0.247630000000     0.178700000000     0.015390000000    -0.12928    
C64      C      0.245050000000     0.256100000000     0.958090000000     0.0152268  
C65      C      0.266630000000     0.231310000000     0.998260000000     0.0315909  
C66      C      0.227940000000     0.350370000000     0.957640000000     0.00729669 
C67      C      0.262510000000     0.307210000000     0.937010000000    -0.0989655  
C68      C      0.271530000000     0.155240000000     0.105480000000    -0.192798   
C69      C      0.776050000000     0.974820000000     0.640450000000     0.00953435 
C70      C      0.721840000000     0.054800000000     0.835030000000     0.0134254  
C71      C      0.650130000000     0.066460000000     0.771290000000     0.0960093  
C72      C      0.756880000000     0.047050000000     0.789340000000    -0.106745   
C73      C      0.740700000000     0.950750000000     0.680300000000    -0.100033   
C74      C      0.678680000000     0.030540000000     0.734210000000    -0.131024   
C75      C      0.755880000000     0.971240000000     0.730280000000     0.0150757  
C76      C      0.731560000000     0.012890000000     0.751540000000     0.0306046  
C77      C      0.847110000000     0.978020000000     0.707410000000     0.00984334 
C78      C      0.809040000000     0.952670000000     0.743580000000    -0.0995748  
C79      C      0.656800000000     0.124030000000     0.758550000000    -0.193026   
C80      C      0.210100000000     0.001270000000     0.653970000000     0.0100935  
C81      C      0.269050000000     0.054840000000     0.877160000000     0.0106779  
C82      C      0.323360000000     0.097990000000     0.813960000000     0.0987528  
C83      C      0.239660000000     0.025700000000     0.836810000000    -0.103922   
C84      C      0.233830000000     0.038990000000     0.690090000000    -0.097979   
C85      C      0.303900000000     0.065360000000     0.771080000000    -0.130491   
C86      C      0.219510000000     0.027590000000     0.744440000000     0.0129468  
C87      C      0.251320000000     0.041950000000     0.782610000000     0.0232237  
C88      C      0.139900000000     0.978720000000     0.713860000000     0.0100133  
C89      C      0.164040000000     0.011210000000     0.754900000000    -0.098715   
C90      C      0.374700000000     0.123800000000     0.800160000000    -0.193432   
C91      C      0.220390000000     0.037650000000     0.341750000000     0.0103136  
C92      C      0.296020000000     0.937860000000     0.137970000000     0.0128733  
C93      C      0.359260000000     0.926680000000     0.204690000000     0.0966877  
C94      C      0.263120000000     0.976180000000     0.167820000000    -0.102354   
C95      C      0.253400000000     0.998820000000     0.312820000000    -0.0966969  
C96      C      0.331190000000     0.965690000000     0.238610000000    -0.128547   
C97      C      0.240130000000     0.996060000000     0.257540000000     0.0130427  
C98      C      0.275440000000     0.976830000000     0.223500000000     0.0226396  
C99      C      0.153080000000     0.040630000000     0.277320000000     0.0112507  
C100     C      0.183700000000     0.004070000000     0.243280000000    -0.099024   
C101     C      0.415530000000     0.919440000000     0.220690000000    -0.1932     
C102     C      0.747990000000     0.948950000000     0.103730000000     0.0105116  
C103     C      0.786560000000     0.004500000000     0.329760000000     0.00986305 
C104     C      0.850510000000     0.041650000000     0.271280000000     0.100734   
C105     C      0.773210000000     0.961960000000     0.293080000000    -0.103277   
C106     C      0.776620000000     0.975490000000     0.145900000000    -0.0959845  
C107     C      0.842080000000     0.999720000000     0.232430000000    -0.130991   
C108     C      0.761080000000     0.959090000000     0.199180000000     0.0120555  
C109     C      0.789220000000     0.975100000000     0.239210000000     0.0239361  
C110     C      0.687770000000     0.907000000000     0.162870000000     0.0102676  
C111     C      0.708770000000     0.934110000000     0.208140000000    -0.096101   
C112     C      0.902300000000     0.068490000000     0.263220000000    -0.197188   
C113     C      0.944730000000     0.128110000000     0.717160000000     0.0107825  
C114     C      0.017390000000     0.332860000000     0.816550000000     0.0131276  
C115     C      0.002070000000     0.265260000000     0.881400000000     0.0936521  
C116     C      0.982780000000     0.308240000000     0.779020000000    -0.102542   
C117     C      0.969940000000     0.158960000000     0.758350000000    -0.0966837  
C118     C      0.973650000000     0.232250000000     0.842720000000    -0.127377   
C119     C      0.969930000000     0.217420000000     0.749520000000     0.0128233  
C120     C      0.978680000000     0.250390000000     0.788300000000     0.0235395  
C121     C      0.943770000000     0.203410000000     0.659280000000     0.0114263  
C122     C      0.971800000000     0.237370000000     0.695650000000    -0.0971105  
C123     C      0.981550000000     0.251510000000     0.934170000000    -0.189213   
C124     C      0.965180000000     0.843700000000     0.700390000000     0.0105777  
C125     C      0.909940000000     0.640520000000     0.787950000000     0.0111168  
C126     C      0.955300000000     0.713030000000     0.832670000000     0.0913485  
C127     C      0.922520000000     0.671350000000     0.739980000000    -0.104664   
C128     C      0.912640000000     0.821030000000     0.713090000000    -0.0990574  
C129     C      0.920250000000     0.748010000000     0.800760000000    -0.129612   
C130     C      0.916990000000     0.763050000000     0.707480000000     0.0125766  
C131     C      0.918900000000     0.729390000000     0.747260000000     0.0259338  
C132     C      0.980670000000     0.773470000000     0.637340000000     0.00838183 
C133     C      0.930270000000     0.747430000000     0.654320000000    -0.0983186  
C134     C      0.012390000000     0.716640000000     0.815870000000    -0.16643    
C135     C      0.987300000000     0.872600000000     0.265120000000     0.0118885  
C136     C      0.114930000000     0.696170000000     0.155590000000     0.0155429  
C137     C      0.076670000000     0.758040000000     0.096500000000     0.100297   
C138     C      0.082860000000     0.715070000000     0.199780000000    -0.105003   
C139     C      0.024300000000     0.853590000000     0.224280000000    -0.0983725  
C140     C      0.045030000000     0.785060000000     0.137850000000    -0.13059    
C141     C      0.042060000000     0.797420000000     0.231170000000     0.0126451  
C142     C      0.059090000000     0.768740000000     0.191210000000     0.0245818  
C143     C      0.009960000000     0.798710000000     0.321020000000     0.00946043 
C144     C      0.050840000000     0.778570000000     0.284640000000    -0.0977307  
C145     C      0.053620000000     0.769580000000     0.045140000000    -0.19797    
C146     C      0.990600000000     0.234640000000     0.346850000000     0.0104029  
C147     C      0.104730000000     0.306030000000     0.146760000000     0.0140005  
C148     C      0.108740000000     0.371200000000     0.212210000000     0.0969742  
C149     C      0.068030000000     0.271720000000     0.176790000000    -0.103135   
C150     C      0.033790000000     0.264760000000     0.320650000000    -0.0983439  
C151     C      0.070800000000     0.342120000000     0.246640000000    -0.129059   
C152     C      0.041070000000     0.251280000000     0.265590000000     0.0123002  
C153     C      0.062350000000     0.285880000000     0.231950000000     0.0238939  
C154     C      0.991360000000     0.168180000000     0.280960000000     0.0109795  
C155     C      0.034670000000     0.194650000000     0.252010000000    -0.098665   
C156     C      0.111510000000     0.428340000000     0.226830000000    -0.191997   
H1       H      0.909990000000     0.071610000000     0.564250000000     0.207786   
H2       H      0.074900000000     0.094060000000     0.425300000000     0.202517   
H3       H      0.079220000000     0.922740000000     0.560420000000     0.206795   
H4       H      0.925690000000     0.925940000000     0.410640000000     0.202505   
H5       H      0.081550000000     0.173280000000     0.495720000000     0.122747   
H6       H      0.167740000000     0.107220000000     0.498850000000     0.182433   
H7       H      0.165430000000     0.927040000000     0.459000000000     0.145714   
H8       H      0.092820000000     0.829520000000     0.517570000000     0.194242   
H9       H      0.919760000000     0.828710000000     0.474760000000     0.124553   
H10      H      0.831170000000     0.899200000000     0.473970000000     0.181197   
H11      H      0.834420000000     0.088280000000     0.468490000000     0.145161   
H12      H      0.888380000000     0.160040000000     0.515440000000     0.192096   
H13      H      0.101960000000     0.841370000000     0.456630000000     0.198811   
H14      H      0.787860000000     0.946770000000     0.482540000000     0.198635   
H15      H      0.922590000000     0.202530000000     0.481770000000     0.200809   
H16      H      0.209240000000     0.057410000000     0.502630000000     0.198015   
H17      H      0.968920000000     0.594530000000     0.089010000000     0.209018   
H18      H      0.912280000000     0.421940000000     0.971300000000     0.199246   
H19      H      0.046900000000     0.570350000000     0.886550000000     0.20447    
H20      H      0.123400000000     0.445030000000     0.044660000000     0.202896   
H21      H      0.823140000000     0.482530000000     0.990850000000     0.124293   
H22      H      0.852650000000     0.496440000000     0.888320000000     0.188169   
H23      H      0.029100000000     0.491670000000     0.818980000000     0.132364   
H24      H      0.154080000000     0.521400000000     0.851150000000     0.195831   
H25      H      0.202290000000     0.520380000000     0.011080000000     0.123932   
H26      H      0.169780000000     0.521660000000     0.117160000000     0.180824   
H27      H      0.000730000000     0.503350000000     0.178530000000     0.140342   
H28      H      0.902720000000     0.497190000000     0.151500000000     0.195607   
H29      H      0.124600000000     0.464360000000     0.853380000000     0.19671    
H30      H      0.137980000000     0.545540000000     0.166570000000     0.195587   
H31      H      0.870540000000     0.551450000000     0.136600000000     0.196651   
H32      H      0.877800000000     0.449860000000     0.852430000000     0.196974   
H33      H      0.443860000000     0.056030000000     0.092770000000     0.206273   
H34      H      0.590590000000     0.903270000000     0.031580000000     0.203585   
H35      H      0.426580000000     0.954520000000     0.901910000000     0.208631   
H36      H      0.579110000000     0.106340000000     0.931510000000     0.203684   
H37      H      0.521010000000     0.865780000000     0.120470000000     0.125531   
H38      H      0.523920000000     0.805790000000     0.020320000000     0.181786   
H39      H      0.525240000000     0.879760000000     0.858140000000     0.144743   
H40      H      0.519840000000     0.972320000000     0.803800000000     0.198487   
H41      H      0.493960000000     0.145920000000     0.863280000000     0.123128   
H42      H      0.508120000000     0.205230000000     0.957800000000     0.181687   
H43      H      0.551590000000     0.133720000000     0.113740000000     0.145695   
H44      H      0.494340000000     0.034140000000     0.178170000000     0.191737   
H45      H      0.456340000000     0.983570000000     0.805140000000     0.194411   
H46      H      0.510210000000     0.223490000000     0.017380000000     0.197002   
H47      H      0.558120000000     0.036820000000     0.169640000000     0.198961   
H48      H      0.510470000000     0.787310000000     0.962390000000     0.197383   
H49      H      0.844000000000     0.808660000000     0.006160000000     0.0399927  
H50      H      0.680720000000     0.777890000000     0.883950000000     0.0240752  
H51      H      0.790220000000     0.693830000000     0.088870000000     0.0243384  
H52      H      0.727090000000     0.698040000000     0.026870000000     0.0409967  
H53      H      0.690050000000     0.725630000000     0.955970000000     0.0419063  
H54      H      0.804330000000     0.841280000000     0.941380000000     0.0483108  
H55      H      0.911180000000     0.743930000000     0.033580000000     0.0318125  
H56      H      0.624020000000     0.785920000000     0.921440000000     0.0324056  
H57      H      0.769180000000     0.672430000000     0.979020000000     0.0514405  
H58      H      0.758330000000     0.864170000000     0.987270000000     0.0587635  
H59      H      0.791640000000     0.632950000000     0.057580000000     0.0368428  
H60      H      0.744000000000     0.839130000000     0.877140000000     0.00519167 
H61      H      0.858570000000     0.758620000000     0.961820000000     0.051592   
H62      H      0.671480000000     0.776460000000     0.998060000000     0.0472818  
H63      H      0.858740000000     0.756370000000     0.075700000000     0.0228231  
H64      H      0.744110000000     0.941970000000     0.932150000000     0.082065   
H65      H      0.783480000000     0.919770000000     0.881480000000     0.058845   
H66      H      0.716780000000     0.933410000000     0.870520000000     0.0814518  
H67      H      0.696470000000     0.285540000000     0.054500000000     0.0405074  
H68      H      0.895170000000     0.266510000000     0.124640000000     0.0240842  
H69      H      0.744250000000     0.167130000000     0.960970000000     0.0251276  
H70      H      0.812760000000     0.172370000000     0.015820000000     0.0392637  
H71      H      0.865270000000     0.210910000000     0.064630000000     0.0402112  
H72      H      0.749600000000     0.317640000000     0.106790000000     0.0489426  
H73      H      0.629920000000     0.226710000000     0.029010000000     0.0321398  
H74      H      0.933280000000     0.278460000000     0.070150000000     0.035253   
H75      H      0.776420000000     0.151300000000     0.069590000000     0.0476695  
H76      H      0.776990000000     0.343440000000     0.049500000000     0.0558116  
H77      H      0.744080000000     0.109060000000     0.997910000000     0.0361264  
H78      H      0.827630000000     0.320600000000     0.149990000000     0.00646222 
H79      H      0.692730000000     0.229770000000     0.095140000000     0.0488968  
H80      H      0.864830000000     0.258800000000     0.015300000000     0.0462951  
H81      H      0.677790000000     0.239050000000     0.981970000000     0.0238271  
H82      H      0.799360000000     0.422890000000     0.097650000000     0.0839875  
H83      H      0.776040000000     0.396500000000     0.155400000000     0.0600369  
H84      H      0.841500000000     0.416620000000     0.151460000000     0.0737877  
H85      H      0.209420000000     0.837470000000     0.979750000000     0.0401274  
H86      H      0.201580000000     0.683850000000     0.839400000000     0.0221317  
H87      H      0.341520000000     0.769910000000     0.018880000000     0.0266723  
H88      H      0.323280000000     0.721030000000     0.948210000000     0.042229   
H89      H      0.273550000000     0.691140000000     0.889670000000     0.0435334  
H90      H      0.162040000000     0.806020000000     0.921270000000     0.0473359  
H91      H      0.277860000000     0.898900000000     0.001780000000     0.0368014  
H92      H      0.205010000000     0.625590000000     0.875260000000     0.033053   
H93      H      0.332350000000     0.774160000000     0.905100000000     0.0507852  
H94      H      0.152830000000     0.756930000000     0.968960000000     0.0572821  
H95      H      0.391580000000     0.779950000000     0.973440000000     0.0347124  
H96      H      0.144870000000     0.749990000000     0.855660000000     0.00674381 
H97      H      0.247870000000     0.859240000000     0.927390000000     0.0482773  
H98      H      0.241230000000     0.668130000000     0.945420000000     0.0557452  
H99      H      0.276670000000     0.839280000000     0.036300000000     0.0267305  
H100     H      0.059020000000     0.744450000000     0.935630000000     0.0787907  
H101     H      0.073450000000     0.795430000000     0.893700000000     0.0541514  
H102     H      0.052380000000     0.736400000000     0.868140000000     0.0537069  
H103     H      0.178920000000     0.204300000000     0.950130000000     0.0402801  
H104     H      0.380330000000     0.227350000000     0.007260000000     0.0339524  
H105     H      0.239730000000     0.358490000000     0.996450000000     0.0264538  
H106     H      0.303710000000     0.315050000000     0.943020000000     0.0416717  
H107     H      0.320010000000     0.293830000000     0.017640000000     0.0434461  
H108     H      0.242990000000     0.154470000000     0.981820000000     0.0546041  
H109     H      0.116330000000     0.278600000000     0.947440000000     0.0353719  
H110     H      0.372410000000     0.230160000000     0.073400000000     0.027278   
H111     H      0.258500000000     0.306890000000     0.895780000000     0.0478787  
H112     H      0.209170000000     0.182990000000     0.033610000000     0.0492052  
H113     H      0.235170000000     0.386090000000     0.935320000000     0.0379614  
H114     H      0.279870000000     0.107290000000     0.042550000000     0.0200044  
H115     H      0.190020000000     0.247580000000     0.899400000000     0.0481472  
H116     H      0.287580000000     0.264190000000     0.067700000000     0.046181   
H117     H      0.150570000000     0.274210000000     0.004780000000     0.030667   
H118     H      0.273220000000     0.195940000000     0.117360000000     0.0661441  
H119     H      0.232160000000     0.140770000000     0.113240000000     0.0588958  
H120     H      0.298810000000     0.132070000000     0.128470000000     0.0676911  
H121     H      0.700040000000     0.958280000000     0.670440000000     0.0410734  
H122     H      0.730970000000     0.023810000000     0.862620000000     0.033521   
H123     H      0.850900000000     0.019440000000     0.717060000000     0.0288134  
H124     H      0.819410000000     0.958790000000     0.782930000000     0.0387991  
H125     H      0.794690000000     0.033160000000     0.802530000000     0.0418572  
H126     H      0.654320000000     0.995820000000     0.730690000000     0.0524961  
H127     H      0.770450000000     0.953820000000     0.605050000000     0.0347237  
H128     H      0.731390000000     0.091850000000     0.852990000000     0.0246747  
H129     H      0.811740000000     0.910080000000     0.738910000000     0.0459532  
H130     H      0.681940000000     0.049170000000     0.696730000000     0.0512823  
H131     H      0.885400000000     0.959410000000     0.713190000000     0.0365003  
H132     H      0.608430000000     0.059150000000     0.766470000000     0.018264   
H133     H      0.745850000000     0.908040000000     0.680030000000     0.047049   
H134     H      0.765050000000     0.084770000000     0.771120000000     0.0458737  
H135     H      0.763460000000     0.015480000000     0.633620000000     0.0300233  
H136     H      0.697420000000     0.136030000000     0.759730000000     0.0662502  
H137     H      0.641890000000     0.132690000000     0.720690000000     0.0620502  
H138     H      0.634380000000     0.147680000000     0.785630000000     0.0702472  
H139     H      0.275950000000     0.035810000000     0.683410000000     0.0407694  
H140     H      0.248130000000     0.091760000000     0.884690000000     0.0245769  
H141     H      0.153860000000     0.938170000000     0.718470000000     0.0260523  
H142     H      0.160950000000     0.987400000000     0.789430000000     0.0408476  
H143     H      0.198310000000     0.031660000000     0.846010000000     0.0411377  
H144     H      0.301840000000     0.091670000000     0.738100000000     0.0490891  
H145     H      0.219460000000     0.014370000000     0.615340000000     0.0355859  
H146     H      0.267500000000     0.031720000000     0.912320000000     0.0364966  
H147     H      0.140260000000     0.046740000000     0.760140000000     0.0493321  
H148     H      0.331880000000     0.033620000000     0.763030000000     0.0550819  
H149     H      0.097540000000     0.978430000000     0.719900000000     0.0374667  
H150     H      0.295240000000     0.130600000000     0.818150000000     0.00736568 
H151     H      0.221040000000     0.078960000000     0.680410000000     0.0503368  
H152     H      0.248730000000     0.983790000000     0.840710000000     0.0488878  
H153     H      0.228620000000     0.962680000000     0.659570000000     0.027896   
H154     H      0.403700000000     0.095190000000     0.786710000000     0.0828132  
H155     H      0.368530000000     0.152210000000     0.769330000000     0.0612486  
H156     H      0.389420000000     0.145490000000     0.832330000000     0.080213   
H157     H      0.293710000000     0.011050000000     0.317990000000     0.0396999  
H158     H      0.282190000000     0.898230000000     0.146760000000     0.0243739  
H159     H      0.163390000000     0.081010000000     0.267040000000     0.0233606  
H160     H      0.180270000000     0.021080000000     0.205270000000     0.0396647  
H161     H      0.222770000000     0.964830000000     0.161420000000     0.0415116  
H162     H      0.332680000000     0.948830000000     0.276860000000     0.0483649  
H163     H      0.228400000000     0.032860000000     0.382150000000     0.0325794  
H164     H      0.289330000000     0.944350000000     0.097520000000     0.037762   
H165     H      0.164830000000     0.965790000000     0.243800000000     0.0502189  
H166     H      0.352210000000     0.002820000000     0.238080000000     0.0524229  
H167     H      0.111430000000     0.036460000000     0.269840000000     0.0358071  
H168     H      0.340720000000     0.888680000000     0.211870000000     0.00773687 
H169     H      0.248660000000     0.959830000000     0.329940000000     0.0490366  
H170     H      0.268750000000     0.015650000000     0.152090000000     0.0502843  
H171     H      0.232410000000     0.077270000000     0.330510000000     0.0239147  
H172     H      0.436660000000     0.956440000000     0.218790000000     0.0749876  
H173     H      0.416730000000     0.905310000000     0.259960000000     0.0609408  
H174     H      0.435010000000     0.889550000000     0.197640000000     0.0865958  
H175     H      0.818120000000     0.967110000000     0.139200000000     0.0394883  
H176     H      0.760550000000     0.038240000000     0.322890000000     0.0258689  
H177     H      0.709910000000     0.870330000000     0.157700000000     0.0244357  
H178     H      0.711250000000     0.904080000000     0.238000000000     0.0411779  
H179     H      0.731250000000     0.956390000000     0.297730000000     0.0420152  
H180     H      0.847170000000     0.018620000000     0.195440000000     0.0479744  
H181     H      0.751580000000     0.972760000000     0.069120000000     0.0350306  
H182     H      0.778280000000     0.990100000000     0.368190000000     0.0338412  
H183     H      0.680720000000     0.964490000000     0.219920000000     0.0501976  
H184     H      0.872080000000     0.968990000000     0.236230000000     0.0573468  
H185     H      0.647090000000     0.896360000000     0.170260000000     0.0379595  
H186     H      0.820870000000     0.072210000000     0.263860000000     0.00668789 
H187     H      0.770040000000     0.017860000000     0.142130000000     0.0474305  
H188     H      0.792990000000     0.925460000000     0.304440000000     0.0480408  
H189     H      0.767210000000     0.911100000000     0.096390000000     0.0236793  
H190     H      0.934750000000     0.040240000000     0.261370000000     0.0821588  
H191     H      0.902040000000     0.090330000000     0.227290000000     0.0590952  
H192     H      0.908100000000     0.096740000000     0.293310000000     0.083874   
H193     H      0.948540000000     0.148650000000     0.793060000000     0.0392679  
H194     H      0.057030000000     0.316850000000     0.811370000000     0.0254772  
H195     H      0.901630000000     0.208270000000     0.665800000000     0.02421    
H196     H      0.952860000000     0.275880000000     0.692050000000     0.0420425  
H197     H      0.000460000000     0.317750000000     0.742250000000     0.0433326  
H198     H      0.989360000000     0.192480000000     0.847550000000     0.0470891  
H199     H      0.955800000000     0.086760000000     0.721890000000     0.0377476  
H200     H      0.019680000000     0.374890000000     0.807960000000     0.0364064  
H201     H      0.012710000000     0.240620000000     0.683590000000     0.0519242  
H202     H      0.931840000000     0.231590000000     0.852030000000     0.0519847  
H203     H      0.952270000000     0.217390000000     0.620740000000     0.0377898  
H204     H      0.043300000000     0.253070000000     0.879920000000     0.00884698 
H205     H      0.010470000000     0.145510000000     0.762240000000     0.0488478  
H206     H      0.943780000000     0.326230000000     0.781040000000     0.0516605  
H207     H      0.902260000000     0.130790000000     0.722420000000     0.0242708  
H208     H      0.943460000000     0.270150000000     0.941230000000     0.0714527  
H209     H      0.977020000000     0.209060000000     0.938450000000     0.0566254  
H210     H      0.009370000000     0.262620000000     0.963040000000     0.0802091  
H211     H      0.898160000000     0.834150000000     0.749860000000     0.0399449  
H212     H      0.868150000000     0.644710000000     0.796480000000     0.0284541  
H213     H      0.012840000000     0.754740000000     0.658010000000     0.0249673  
H214     H      0.934560000000     0.705210000000     0.649280000000     0.0425254  
H215     H      0.894890000000     0.659420000000     0.711160000000     0.0438566  
H216     H      0.880540000000     0.747980000000     0.816590000000     0.0546723  
H217     H      0.963030000000     0.886060000000     0.706170000000     0.0391738  
H218     H      0.917450000000     0.598940000000     0.780630000000     0.0399703  
H219     H      0.898760000000     0.760700000000     0.629440000000     0.0515481  
H220     H      0.935500000000     0.787570000000     0.804030000000     0.0487341  
H221     H      0.987390000000     0.765920000000     0.597090000000     0.0387514  
H222     H      0.952190000000     0.727740000000     0.871470000000     0.0185006  
H223     H      0.884190000000     0.836480000000     0.685900000000     0.0539224  
H224     H      0.962110000000     0.661000000000     0.727200000000     0.0498861  
H225     H      0.994130000000     0.827550000000     0.726720000000     0.0250793  
H226     H      0.027170000000     0.679260000000     0.801130000000     0.0664228  
H227     H      0.018210000000     0.746280000000     0.785990000000     0.0587142  
H228     H      0.036800000000     0.727780000000     0.848020000000     0.0411004  
H229     H      0.003390000000     0.859960000000     0.188960000000     0.0396284  
H230     H      0.150490000000     0.719600000000     0.152970000000     0.0233011  
H231     H      0.972840000000     0.779820000000     0.312920000000     0.0284856  
H232     H      0.049440000000     0.735870000000     0.288100000000     0.0420341  
H233     H      0.109300000000     0.714940000000     0.231990000000     0.0426714  
H234     H      0.051390000000     0.827020000000     0.131950000000     0.0475734  
H235     H      0.983460000000     0.915320000000     0.262050000000     0.0349732  
H236     H      0.127690000000     0.655700000000     0.162880000000     0.0325982  
H237     H      0.089360000000     0.791340000000     0.296620000000     0.0489785  
H238     H      0.003470000000     0.777180000000     0.132900000000     0.0552175  
H239     H      0.021240000000     0.787050000000     0.359420000000     0.0378393  
H240     H      0.115010000000     0.776870000000     0.095750000000     0.00507462 
H241     H      0.058870000000     0.878400000000     0.223490000000     0.0491585  
H242     H      0.051530000000     0.687190000000     0.207590000000     0.0542607  
H243     H      0.948660000000     0.856530000000     0.257900000000     0.0240875  
H244     H      0.012920000000     0.757330000000     0.043290000000     0.0794041  
H245     H      0.054620000000     0.811760000000     0.037150000000     0.0577343  
H246     H      0.077310000000     0.750270000000     0.016250000000     0.0795363  
H247     H      0.023590000000     0.306120000000     0.325600000000     0.041096   
H248     H      0.144840000000     0.294430000000     0.156240000000     0.0211429  
H249     H      0.954000000000     0.182910000000     0.266360000000     0.023424   
H250     H      0.024930000000     0.189750000000     0.212260000000     0.039648   
H251     H      0.083720000000     0.231930000000     0.172620000000     0.0408219  
H252     H      0.086880000000     0.343800000000     0.284760000000     0.0482485  
H253     H      0.992430000000     0.241460000000     0.387600000000     0.0339784  
H254     H      0.100450000000     0.298420000000     0.106340000000     0.0342825  
H255     H      0.071490000000     0.173760000000     0.259280000000     0.0483321  
H256     H      0.032850000000     0.362440000000     0.246510000000     0.0552725  
H257     H      0.993900000000     0.126260000000     0.273110000000     0.033624   
H258     H      0.147590000000     0.354460000000     0.219910000000     0.00544835 
H259     H      0.070540000000     0.256700000000     0.340140000000     0.0480216  
H260     H      0.029420000000     0.273870000000     0.159520000000     0.0536039  
H261     H      0.953110000000     0.250540000000     0.333730000000     0.0256513  
H262     H      0.073280000000     0.447770000000     0.224550000000     0.0739509  
H263     H      0.124490000000     0.431140000000     0.266000000000     0.0580072  
H264     H      0.140340000000     0.448700000000     0.203170000000     0.0742286  
N1       N      0.676590000000     0.850180000000     0.920420000000    -0.182893   
N2       N      0.854820000000     0.683790000000     0.041250000000    -0.171605   
N3       N      0.876930000000     0.337810000000     0.089060000000    -0.181161   
N4       N      0.682850000000     0.163820000000     0.012920000000    -0.170329   
N5       N      0.144860000000     0.679820000000     0.896890000000    -0.181754   
N6       N      0.338460000000     0.843820000000     0.984780000000    -0.170822   
N7       N      0.339250000000     0.164570000000     0.040300000000    -0.180625   
N8       N      0.172400000000     0.337490000000     0.958290000000    -0.170152   
N9       N      0.666400000000     0.055140000000     0.823070000000    -0.181989   
N10      N      0.831230000000     0.974620000000     0.654460000000    -0.170225   
N11      N      0.321930000000     0.066710000000     0.860670000000    -0.180753   
N12      N      0.154510000000     0.996910000000     0.663480000000    -0.168361   
N13      N      0.350450000000     0.941550000000     0.151840000000    -0.180898   
N14      N      0.165910000000     0.031340000000     0.329860000000    -0.171355   
N15      N      0.840330000000     0.020240000000     0.321990000000    -0.18234    
N16      N      0.694370000000     0.939880000000     0.118440000000    -0.171107   
N17      N      0.999260000000     0.320960000000     0.867550000000    -0.181343   
N18      N      0.958110000000     0.149060000000     0.667550000000    -0.170689   
N19      N      0.939000000000     0.658640000000     0.831340000000    -0.180537   
N20      N      0.979810000000     0.829280000000     0.648810000000    -0.170161   
N21      N      0.084940000000     0.702820000000     0.109770000000    -0.181863   
N22      N      0.003790000000     0.854820000000     0.314730000000    -0.171598   
N23      N      0.096170000000     0.360500000000     0.159600000000    -0.182461   
N24      N      0.993920000000     0.179610000000     0.334390000000    -0.171506   
O1       O      0.858060000000     0.005950000000     0.404350000000    -0.368128   
O2       O      0.923980000000     0.017140000000     0.348800000000    -0.357447   
O3       O      0.977720000000     0.138490000000     0.584920000000    -0.35804    
O4       O      0.979930000000     0.069270000000     0.638410000000    -0.357541   
O5       O      0.993200000000     0.154210000000     0.416660000000    -0.362726   
O6       O      0.997550000000     0.093940000000     0.355320000000    -0.357286   
O7       O      0.852950000000     0.982690000000     0.571730000000    -0.356291   
O8       O      0.914960000000     0.986210000000     0.631080000000    -0.352143   
O9       O      0.827080000000     0.064110000000     0.496510000000    -0.348642   
O10      O      0.823250000000     0.935140000000     0.480090000000    -0.513782   
O11      O      0.919870000000     0.169250000000     0.498210000000    -0.509967   
O12      O      0.047250000000     0.185230000000     0.507540000000    -0.336621   
O13      O      0.937750000000     0.062870000000     0.444620000000    -0.467677   
O14      O      0.934270000000     0.054120000000     0.542550000000    -0.61269    
O15      O      0.992380000000     0.852980000000     0.566700000000    -0.356408   
O16      O      0.991560000000     0.913720000000     0.627670000000    -0.356315   
O17      O      0.143550000000     0.020870000000     0.412090000000    -0.367063   
O18      O      0.081700000000     0.019540000000     0.352430000000    -0.356519   
O19      O      0.137220000000     0.007730000000     0.580460000000    -0.355416   
O20      O      0.071350000000     0.994480000000     0.636050000000    -0.355606   
O21      O      0.007030000000     0.867460000000     0.398740000000    -0.362986   
O22      O      0.004210000000     0.936740000000     0.345170000000    -0.358769   
O23      O      0.081780000000     0.845770000000     0.486820000000    -0.514068   
O24      O      0.956170000000     0.817290000000     0.476690000000    -0.328276   
O25      O      0.166580000000     0.940390000000     0.493390000000    -0.343639   
O26      O      0.174390000000     0.070430000000     0.499900000000    -0.512005   
O27      O      0.058000000000     0.944520000000     0.539360000000    -0.609683   
O28      O      0.061880000000     0.952770000000     0.440060000000    -0.468062   
O29      O      0.941250000000     0.936990000000     0.539500000000    -0.474569   
O30      O      0.054550000000     0.070020000000     0.444770000000    -0.623339   
O31      O      0.945160000000     0.945810000000     0.433900000000    -0.621815   
O32      O      0.051150000000     0.062180000000     0.550980000000    -0.476402   
O33      O      0.078700000000     0.443710000000     0.133230000000    -0.371108   
O34      O      0.056520000000     0.375950000000     0.085190000000    -0.358191   
O35      O      0.875370000000     0.597540000000     0.040850000000    -0.35802    
O36      O      0.933690000000     0.656980000000     0.013020000000    -0.360487   
O37      O      0.887770000000     0.423620000000     0.067610000000    -0.36436    
O38      O      0.950970000000     0.364720000000     0.050200000000    -0.36066    
O39      O      0.075570000000     0.615460000000     0.105540000000    -0.359649   
O40      O      0.040840000000     0.666670000000     0.044920000000    -0.358401   
O41      O      0.012810000000     0.538050000000     0.168330000000    -0.348145   
O42      O      0.137890000000     0.532260000000     0.133060000000    -0.511231   
O43      O      0.891370000000     0.522070000000     0.126700000000    -0.513716   
O44      O      0.823760000000     0.502410000000     0.022120000000    -0.336974   
O45      O      0.986810000000     0.467590000000     0.079340000000    -0.470217   
O46      O      0.980510000000     0.569240000000     0.065050000000    -0.60652    
O47      O      0.135410000000     0.596150000000     0.924030000000    -0.363051   
O48      O      0.072580000000     0.655520000000     0.940950000000    -0.358054   
O49      O      0.981670000000     0.406240000000     0.880890000000    -0.361721   
O50      O      0.000870000000     0.353470000000     0.946560000000    -0.361317   
O51      O      0.945690000000     0.576420000000     0.862940000000    -0.35745    
O52      O      0.973880000000     0.644280000000     0.908220000000    -0.354171   
O53      O      0.150840000000     0.423570000000     0.954870000000    -0.360271   
O54      O      0.092510000000     0.364350000000     0.983110000000    -0.352725   
O55      O      0.134520000000     0.495800000000     0.869490000000    -0.516389   
O56      O      0.201240000000     0.520330000000     0.974200000000    -0.334861   
O57      O      0.991050000000     0.493400000000     0.819020000000    -0.328832   
O58      O      0.882150000000     0.476940000000     0.876400000000    -0.523648   
O59      O      0.038100000000     0.551970000000     0.916980000000    -0.610586   
O60      O      0.044890000000     0.451990000000     0.930680000000    -0.465825   
O61      O      0.087860000000     0.572970000000     0.017250000000    -0.474882   
O62      O      0.937860000000     0.447440000000     0.978480000000    -0.621525   
O63      O      0.094120000000     0.464110000000     0.031930000000    -0.62323    
O64      O      0.930900000000     0.557840000000     0.963870000000    -0.474902   
O65      O      0.597620000000     0.143290000000     0.018800000000    -0.367537   
O66      O      0.656860000000     0.081060000000     0.998160000000    -0.354062   
O67      O      0.434960000000     0.953120000000     0.127590000000    -0.363501   
O68      O      0.370140000000     0.977790000000     0.075940000000    -0.354465   
O69      O      0.607810000000     0.951970000000     0.110470000000    -0.363273   
O70      O      0.662280000000     0.978070000000     0.047770000000    -0.356317   
O71      O      0.424450000000     0.144520000000     0.029740000000    -0.357045   
O72      O      0.364570000000     0.080950000000     0.026370000000    -0.358112   
O73      O      0.514720000000     0.136190000000     0.105120000000    -0.347784   
O74      O      0.509440000000     0.196480000000     0.992890000000    -0.510117   
O75      O      0.524940000000     0.024650000000     0.159450000000    -0.513601   
O76      O      0.525270000000     0.895640000000     0.142650000000    -0.334175   
O77      O      0.567050000000     0.042700000000     0.055480000000    -0.469558   
O78      O      0.464060000000     0.042580000000     0.065260000000    -0.608451   
O79      O      0.409510000000     0.057110000000     0.869490000000    -0.365365   
O80      O      0.355600000000     0.030940000000     0.932120000000    -0.355797   
O81      O      0.592600000000     0.869150000000     0.939050000000    -0.36984    
O82      O      0.653240000000     0.930750000000     0.948840000000    -0.357351   
O83      O      0.422480000000     0.865070000000     0.971440000000    -0.356977   
O84      O      0.362720000000     0.928230000000     0.987580000000    -0.354698   
O85      O      0.582600000000     0.049720000000     0.849730000000    -0.362819   
O86      O      0.647910000000     0.030630000000     0.903290000000    -0.359349   
O87      O      0.489960000000     0.988330000000     0.819180000000    -0.513122   
O88      O      0.497040000000     0.116990000000     0.839610000000    -0.338094   
O89      O      0.492210000000     0.874360000000     0.876110000000    -0.347654   
O90      O      0.515400000000     0.814410000000     0.986230000000    -0.510308   
O91      O      0.451350000000     0.968030000000     0.924730000000    -0.609922   
O92      O      0.554330000000     0.968190000000     0.914620000000    -0.469053   
O93      O      0.450140000000     0.080180000000     0.958160000000    -0.476344   
O94      O      0.567400000000     0.930740000000     0.021330000000    -0.621944   
O95      O      0.558860000000     0.079600000000     0.947340000000    -0.622246   
O96      O      0.459000000000     0.930800000000     0.032710000000    -0.474778   
Zr1      Zr     0.891870000000     0.995830000000     0.488780000000     1.29625    
Zr2      Zr     0.992510000000     0.110480000000     0.498750000000     1.29243    
Zr3      Zr     0.003720000000     0.896920000000     0.485240000000     1.28796    
Zr4      Zr     0.104020000000     0.011180000000     0.495210000000     1.28655    
Zr5      Zr     0.001220000000     0.011460000000     0.398700000000     1.26423    
Zr6      Zr     0.994540000000     0.996090000000     0.584890000000     1.26917    
Zr7      Zr     0.058040000000     0.524930000000     0.089330000000     1.28925    
Zr8      Zr     0.914720000000     0.510540000000     0.040260000000     1.28401    
Zr9      Zr     0.110680000000     0.510140000000     0.955400000000     1.29255    
Zr10     Zr     0.966560000000     0.495590000000     0.906870000000     1.29128    
Zr11     Zr     0.019010000000     0.414600000000     0.010930000000     1.26683    
Zr12     Zr     0.007030000000     0.606310000000     0.984810000000     1.25944    
Zr13     Zr     0.510830000000     0.107190000000     0.019250000000     1.29016    
Zr14     Zr     0.518610000000     0.970580000000     0.087390000000     1.29207    
Zr15     Zr     0.499340000000     0.040010000000     0.892530000000     1.29079    
Zr16     Zr     0.507260000000     0.903600000000     0.960560000000     1.29503    
Zr17     Zr     0.605660000000     0.005340000000     0.980500000000     1.26279    
Zr18     Zr     0.412820000000     0.005350000000     0.999540000000     1.2621     


