data_structure

_audit_creation_method RASPA-1.0
_audit_creation_date 2023-6-5
_audit_author_name 'Poobodin Mano'

_cell_length_a    27.2531
_cell_length_b    27.196
_cell_length_c    26.8191
_cell_angle_alpha 89.2565
_cell_angle_beta  89.2563
_cell_angle_gamma 89.2563
_cell_volume      19872.7

_symmetry_cell_setting          triclinic
_symmetry_space_group_name_Hall 'P 1'
_symmetry_space_group_name_H-M  'P 1'
_symmetry_Int_Tables_number     1

_symmetry_equiv_pos_as_xyz 'x,y,z'

loop_
_atom_site_label
_atom_site_type_symbol
_atom_site_fract_x
_atom_site_fract_y
_atom_site_fract_z
_atom_site_charge
Br1      Br     0.721310000000     0.911000000000     0.950710000000    -0.25157    
Br2      Br     0.856390000000     0.258550000000     0.067180000000    -0.257271   
Br3      Br     0.112650000000     0.711640000000     0.071320000000    -0.253732   
Br4      Br     0.256070000000     0.123400000000     0.100970000000    -0.255038   
Br5      Br     0.834100000000     0.042440000000     0.704540000000    -0.242051   
Br6      Br     0.250600000000     0.089170000000     0.873970000000    -0.260651   
Br7      Br     0.077620000000     0.049430000000     0.258520000000    -0.242357   
Br8      Br     0.868200000000     0.891160000000     0.260230000000    -0.260473   
Br9      Br     0.969490000000     0.055240000000     0.735690000000    -0.225586   
Br10     Br     0.907160000000     0.600700000000     0.774000000000    -0.25153    
Br11     Br     0.964810000000     0.565670000000     0.235330000000    -0.237942   
Br12     Br     0.062130000000     0.248640000000     0.125570000000    -0.251231   
C1       C      0.871040000000     0.967360000000     0.360790000000     0.393506   
C2       C      0.960820000000     0.100540000000     0.621270000000     0.39043    
C3       C      0.965330000000     0.101740000000     0.361020000000     0.378724   
C4       C      0.863880000000     0.957030000000     0.619110000000     0.391044   
C5       C      0.002950000000     0.861650000000     0.623580000000     0.377356   
C6       C      0.110250000000     0.001810000000     0.364300000000     0.385746   
C7       C      0.097220000000     0.013910000000     0.624060000000     0.384512   
C8       C      0.018260000000     0.863620000000     0.363330000000     0.378829   
C9       C      0.982010000000     0.350210000000     0.110530000000     0.392113   
C10      C      0.856130000000     0.607920000000     0.999770000000     0.379004   
C11      C      0.865290000000     0.353440000000     0.985090000000     0.388066   
C12      C      0.973020000000     0.606790000000     0.119050000000     0.388061   
C13      C      0.098840000000     0.614000000000     0.992900000000     0.390086   
C14      C      0.997490000000     0.361150000000     0.864990000000     0.378828   
C15      C      0.972490000000     0.616730000000     0.872660000000     0.387459   
C16      C      0.108080000000     0.358340000000     0.991200000000     0.378925   
C17      C      0.614520000000     0.099130000000     0.015080000000     0.380188   
C18      C      0.359240000000     0.966970000000     0.119200000000     0.378139   
C19      C      0.615370000000     0.955520000000     0.106800000000     0.378134   
C20      C      0.358140000000     0.108440000000     0.015360000000     0.391493   
C21      C      0.354440000000     0.010640000000     0.876380000000     0.390682   
C22      C      0.609760000000     0.865110000000     0.960140000000     0.388304   
C23      C      0.354250000000     0.869160000000     0.990350000000     0.381513   
C24      C      0.609410000000     0.005040000000     0.867100000000     0.378655   
C25      C      0.832620000000     0.693780000000     0.020550000000     0.0135163  
C26      C      0.634290000000     0.781880000000     0.931750000000     0.0124605  
C27      C      0.699110000000     0.843760000000     0.939420000000     0.133968   
C28      C      0.662550000000     0.743760000000     0.963010000000    -0.106528   
C29      C      0.804680000000     0.730770000000     0.987910000000    -0.101246   
C30      C      0.730790000000     0.809330000000     0.971520000000    -0.137989   
C31      C      0.750360000000     0.718890000000     0.981730000000     0.0153572  
C32      C      0.716900000000     0.755270000000     0.968990000000     0.0284737  
C33      C      0.768280000000     0.630860000000     0.012090000000     0.0121513  
C34      C      0.736940000000     0.664610000000     0.978980000000    -0.0993247  
C35      C      0.704050000000     0.115710000000     0.015170000000     0.0110692  
C36      C      0.780300000000     0.327080000000     0.970670000000     0.0194941  
C37      C      0.846870000000     0.265100000000     0.995510000000     0.134063   
C38      C      0.744890000000     0.294260000000     0.999910000000    -0.110502   
C39      C      0.728120000000     0.152770000000     0.979510000000    -0.0974567  
C40      C      0.809570000000     0.226980000000     0.978100000000    -0.136413   
C41      C      0.721050000000     0.205170000000     0.998120000000     0.0112498  
C42      C      0.756820000000     0.240060000000     0.992850000000     0.0425351  
C43      C      0.644420000000     0.179020000000     0.046080000000     0.0089215  
C44      C      0.668610000000     0.219010000000     0.013820000000    -0.0942177  
C45      C      0.265260000000     0.851000000000     0.990510000000     0.00886538 
C46      C      0.184000000000     0.638570000000     0.975610000000     0.021286   
C47      C      0.118730000000     0.702380000000     0.999620000000     0.133406   
C48      C      0.220530000000     0.672930000000     0.999110000000    -0.110742   
C49      C      0.237520000000     0.812010000000     0.961780000000    -0.0970213  
C50      C      0.155360000000     0.739530000000     0.976740000000    -0.134902   
C51      C      0.245470000000     0.760850000000     0.984330000000     0.0133693  
C52      C      0.208910000000     0.726500000000     0.987070000000     0.0408727  
C53      C      0.326430000000     0.787790000000     0.019920000000     0.0130796  
C54      C      0.298930000000     0.747000000000     0.993990000000    -0.100079   
C55      C      0.131270000000     0.269830000000     0.987430000000     0.00282455 
C56      C      0.334980000000     0.195630000000     0.022360000000     0.0270373  
C57      C      0.270000000000     0.128440000000     0.029670000000     0.137602   
C58      C      0.291740000000     0.229670000000     0.035320000000    -0.116327   
C59      C      0.170440000000     0.241710000000     0.957060000000    -0.0947635  
C60      C      0.233420000000     0.163740000000     0.003620000000    -0.14162    
C61      C      0.220620000000     0.252120000000     0.978110000000     0.0120002  
C62      C      0.247730000000     0.217530000000     0.003890000000     0.0510216  
C63      C      0.194740000000     0.334610000000     0.006460000000     0.00764687 
C64      C      0.232190000000     0.306320000000     0.974770000000    -0.0967904  
C65      C      0.698250000000     0.003200000000     0.845420000000     0.0103426  
C66      C      0.781000000000     0.929700000000     0.645340000000     0.0212158  
C67      C      0.838180000000     0.970790000000     0.706250000000     0.134136   
C68      C      0.739080000000     0.954680000000     0.674350000000    -0.110056   
C69      C      0.718020000000     0.957170000000     0.819760000000    -0.0955162  
C70      C      0.802240000000     0.950440000000     0.745710000000    -0.136945   
C71      C      0.711450000000     0.963130000000     0.763740000000     0.0123527  
C72      C      0.749010000000     0.956530000000     0.729890000000     0.04403    
C73      C      0.636570000000     0.017430000000     0.778670000000     0.00715592 
C74      C      0.658750000000     0.974840000000     0.748170000000    -0.095351   
C75      C      0.115040000000     0.013630000000     0.714530000000     0.0101858  
C76      C      0.329940000000     0.017790000000     0.788820000000     0.0228555  
C77      C      0.265810000000     0.020750000000     0.859160000000     0.136482   
C78      C      0.290260000000     0.042510000000     0.757320000000    -0.110851   
C79      C      0.159330000000     0.987590000000     0.737660000000    -0.0970423  
C80      C      0.230240000000     0.001150000000     0.820290000000    -0.136346   
C81      C      0.205400000000     0.018400000000     0.731220000000     0.0125701  
C82      C      0.240100000000     0.020690000000     0.767710000000     0.042328   
C83      C      0.168640000000     0.059840000000     0.654510000000     0.011464   
C84      C      0.214970000000     0.038500000000     0.678590000000    -0.0976083  
C85      C      0.270680000000     0.969450000000     0.139800000000     0.00430697 
C86      C      0.197710000000     0.998780000000     0.342910000000     0.0135187  
C87      C      0.131610000000     0.003750000000     0.273890000000     0.133618   
C88      C      0.235670000000     0.013250000000     0.303150000000    -0.110106   
C89      C      0.235450000000     0.942480000000     0.175300000000    -0.0967486  
C90      C      0.173440000000     0.015920000000     0.236840000000    -0.141649   
C91      C      0.246870000000     0.957300000000     0.227900000000     0.0152675  
C92      C      0.221100000000     0.992870000000     0.253580000000     0.0388342  
C93      C      0.335660000000     0.963940000000     0.208570000000     0.00621212 
C94      C      0.297290000000     0.938590000000     0.242080000000    -0.0977223  
C95      C      0.704890000000     0.954560000000     0.122400000000     0.00939689 
C96      C      0.784260000000     0.972500000000     0.337000000000     0.0215402  
C97      C      0.851850000000     0.960140000000     0.271330000000     0.134634   
C98      C      0.751550000000     0.944870000000     0.301700000000    -0.110775   
C99      C      0.729010000000     0.984740000000     0.162640000000    -0.0967487  
C100     C      0.812310000000     0.977960000000     0.234470000000    -0.136631   
C101     C      0.724080000000     0.959440000000     0.213450000000     0.0120498  
C102     C      0.760900000000     0.960180000000     0.247850000000     0.042335   
C103     C      0.647050000000     0.916710000000     0.184390000000     0.00814686 
C104     C      0.672520000000     0.942050000000     0.227400000000    -0.0956149  
C105     C      0.022760000000     0.275980000000     0.843280000000     0.012182   
C106     C      0.935960000000     0.184370000000     0.647000000000     0.0121946  
C107     C      0.950420000000     0.121820000000     0.713290000000     0.13286    
C108     C      0.967640000000     0.222430000000     0.672470000000    -0.105841   
C109     C      0.993050000000     0.237610000000     0.816040000000    -0.100495   
C110     C      0.981310000000     0.157780000000     0.743050000000    -0.136375   
C111     C      0.986090000000     0.248830000000     0.760510000000     0.0143838  
C112     C      0.975110000000     0.211770000000     0.727850000000     0.0293626  
C113     C      0.010520000000     0.338390000000     0.776170000000     0.0119771  
C114     C      0.980520000000     0.302950000000     0.745080000000    -0.0994164  
C115     C      0.004140000000     0.774510000000     0.651310000000     0.00788438 
C116     C      0.977990000000     0.705360000000     0.857850000000     0.0141211  
C117     C      0.962060000000     0.644870000000     0.785160000000     0.13324    
C118     C      0.965570000000     0.747600000000     0.821830000000    -0.109722   
C119     C      0.031920000000     0.743360000000     0.689920000000    -0.0992415  
C120     C      0.953460000000     0.690510000000     0.751870000000    -0.139051   
C121     C      0.015700000000     0.758860000000     0.741480000000     0.0150908  
C122     C      0.981530000000     0.734020000000     0.769770000000     0.0349963  
C123     C      0.002080000000     0.844850000000     0.714400000000     0.00782157 
C124     C      0.030190000000     0.811310000000     0.750830000000    -0.0993052  
C125     C      0.046710000000     0.780280000000     0.338020000000     0.0118332  
C126     C      0.956670000000     0.694020000000     0.140140000000     0.0169088  
C127     C      0.960050000000     0.633330000000     0.209400000000     0.133558   
C128     C      0.989840000000     0.729800000000     0.167370000000    -0.111738   
C129     C      0.015500000000     0.743010000000     0.311080000000    -0.0981953  
C130     C      0.995560000000     0.664810000000     0.238810000000    -0.138055   
C131     C      0.007900000000     0.755230000000     0.255900000000     0.0187117  
C132     C      0.994840000000     0.718970000000     0.223110000000     0.034173   
C133     C      0.033060000000     0.844870000000     0.273560000000     0.0133157  
C134     C      0.004200000000     0.809670000000     0.240850000000    -0.10121    
C135     C      0.958080000000     0.121100000000     0.270610000000     0.00283506 
C136     C      0.976800000000     0.323600000000     0.198190000000     0.025294   
C137     C      0.991570000000     0.260910000000     0.128460000000     0.135382   
C138     C      0.990010000000     0.280140000000     0.232040000000    -0.11653    
C139     C      0.923250000000     0.153890000000     0.239630000000    -0.0948647  
C140     C      0.965730000000     0.222100000000     0.161940000000    -0.140166   
C141     C      0.935110000000     0.207060000000     0.249520000000     0.0127344  
C142     C      0.961830000000     0.235360000000     0.216660000000     0.0488066  
C143     C      0.961900000000     0.189330000000     0.335150000000     0.0063259  
C144     C      0.926140000000     0.219530000000     0.303530000000    -0.09666    
H1       H      0.895260000000     0.041250000000     0.560510000000     0.215379   
H2       H      0.048520000000     0.071480000000     0.417750000000     0.207355   
H3       H      0.073400000000     0.921950000000     0.565660000000     0.208454   
H4       H      0.929580000000     0.892500000000     0.416640000000     0.20692    
H5       H      0.041770000000     0.155140000000     0.487070000000     0.126221   
H6       H      0.135030000000     0.101110000000     0.484720000000     0.186094   
H7       H      0.154820000000     0.926390000000     0.471470000000     0.145284   
H8       H      0.096580000000     0.828710000000     0.529910000000     0.198036   
H9       H      0.932480000000     0.808090000000     0.485910000000     0.126366   
H10      H      0.845060000000     0.859880000000     0.477610000000     0.185725   
H11      H      0.822750000000     0.041270000000     0.471130000000     0.145474   
H12      H      0.873100000000     0.132520000000     0.521210000000     0.199495   
H13      H      0.105010000000     0.837490000000     0.468560000000     0.200823   
H14      H      0.797420000000     0.898020000000     0.488040000000     0.203496   
H15      H      0.872370000000     0.128960000000     0.459000000000     0.201297   
H16      H      0.180010000000     0.059460000000     0.493320000000     0.201307   
H17      H      0.902920000000     0.547530000000     0.069930000000     0.211448   
H18      H      0.910950000000     0.411270000000     0.910490000000     0.203756   
H19      H      0.055680000000     0.558320000000     0.917280000000     0.208103   
H20      H      0.059180000000     0.408820000000     0.068110000000     0.210571   
H21      H      0.826000000000     0.480880000000     0.899190000000     0.128432   
H22      H      0.894200000000     0.484240000000     0.821950000000     0.196488   
H23      H      0.074010000000     0.470380000000     0.838790000000     0.146196   
H24      H      0.151710000000     0.517660000000     0.910880000000     0.197449   
H25      H      0.139060000000     0.477820000000     0.082940000000     0.128899   
H26      H      0.068560000000     0.490770000000     0.162200000000     0.197949   
H27      H      0.892070000000     0.450420000000     0.141870000000     0.148198   
H28      H      0.811950000000     0.503230000000     0.074600000000     0.199492   
H29      H      0.150120000000     0.456270000000     0.908790000000     0.201115   
H30      H      0.026190000000     0.460510000000     0.195830000000     0.215992   
H31      H      0.815770000000     0.441930000000     0.071290000000     0.20658    
H32      H      0.943450000000     0.481610000000     0.784050000000     0.213847   
H33      H      0.417830000000     0.048280000000     0.083770000000     0.21118    
H34      H      0.557820000000     0.893760000000     0.052390000000     0.204801   
H35      H      0.411070000000     0.926230000000     0.907910000000     0.207885   
H36      H      0.557260000000     0.073150000000     0.926990000000     0.203117   
H37      H      0.490070000000     0.869720000000     0.138620000000     0.125612   
H38      H      0.492930000000     0.802490000000     0.053020000000     0.183671   
H39      H      0.499730000000     0.850080000000     0.879160000000     0.145941   
H40      H      0.450190000000     0.937710000000     0.810160000000     0.197497   
H41      H      0.482790000000     0.101900000000     0.849100000000     0.126831   
H42      H      0.497230000000     0.165310000000     0.929440000000     0.184097   
H43      H      0.509980000000     0.117740000000     0.105990000000     0.146866   
H44      H      0.462630000000     0.038160000000     0.175430000000     0.198083   
H45      H      0.511200000000     0.931360000000     0.813330000000     0.200455   
H46      H      0.485170000000     0.194490000000     0.982890000000     0.202203   
H47      H      0.523920000000     0.035440000000     0.171290000000     0.201165   
H48      H      0.485770000000     0.775690000000     0.997780000000     0.199246   
H49      H      0.809650000000     0.766670000000     0.006220000000     0.0487007  
H50      H      0.644980000000     0.776930000000     0.891910000000     0.0275147  
H51      H      0.756320000000     0.635990000000     0.051540000000     0.0274591  
H52      H      0.698530000000     0.658280000000     0.991420000000     0.0439964  
H53      H      0.657570000000     0.708300000000     0.943830000000     0.0455342  
H54      H      0.768920000000     0.814920000000     0.957730000000     0.0669166  
H55      H      0.872480000000     0.701480000000     0.017200000000     0.041563   
H56      H      0.594530000000     0.773690000000     0.934850000000     0.0344464  
H57      H      0.740930000000     0.652770000000     0.939610000000     0.0569048  
H58      H      0.728200000000     0.820790000000     0.011120000000     0.0754784  
H59      H      0.760710000000     0.592100000000     0.002440000000     0.0405368  
H60      H      0.709130000000     0.836410000000     0.899790000000     0.0141783  
H61      H      0.822360000000     0.732360000000     0.950340000000     0.0566363  
H62      H      0.645250000000     0.741150000000     0.000700000000     0.0525833  
H63      H      0.821690000000     0.699910000000     0.060150000000     0.0294109  
H64      H      0.766770000000     0.141080000000     0.974180000000     0.0480037  
H65      H      0.775710000000     0.320840000000     0.930090000000     0.0270585  
H66      H      0.661540000000     0.179260000000     0.083520000000     0.0316172  
H67      H      0.666980000000     0.252900000000     0.036410000000     0.0448089  
H68      H      0.707720000000     0.303720000000     0.985880000000     0.0466225  
H69      H      0.811920000000     0.224080000000     0.936840000000     0.0588752  
H70      H      0.708210000000     0.078400000000     0.999110000000     0.0448938  
H71      H      0.769540000000     0.365960000000     0.977650000000     0.0394514  
H72      H      0.646550000000     0.225450000000     0.979740000000     0.0483765  
H73      H      0.821330000000     0.191250000000     0.994690000000     0.0700628  
H74      H      0.604930000000     0.188480000000     0.051420000000     0.0373177  
H75      H      0.882920000000     0.256400000000     0.977560000000     0.0254365  
H76      H      0.710560000000     0.150300000000     0.942450000000     0.0531836  
H77      H      0.746320000000     0.303030000000     0.040230000000     0.0671616  
H78      H      0.724050000000     0.115740000000     0.051080000000     0.0341719  
H79      H      0.198660000000     0.824000000000     0.960190000000     0.0449659  
H80      H      0.187530000000     0.641320000000     0.934300000000     0.0229857  
H81      H      0.313390000000     0.789220000000     0.059380000000     0.0321392  
H82      H      0.302840000000     0.714350000000     0.018900000000     0.0462135  
H83      H      0.256830000000     0.661480000000     0.983640000000     0.046588   
H84      H      0.150350000000     0.741260000000     0.935700000000     0.0557753  
H85      H      0.261360000000     0.886760000000     0.970250000000     0.0401381  
H86      H      0.194670000000     0.600320000000     0.986340000000     0.0394686  
H87      H      0.317370000000     0.738710000000     0.957800000000     0.0514618  
H88      H      0.145260000000     0.775960000000     0.992240000000     0.0685311  
H89      H      0.366060000000     0.777710000000     0.020690000000     0.0373003  
H90      H      0.081920000000     0.710820000000     0.983980000000     0.0242702  
H91      H      0.251480000000     0.811630000000     0.922650000000     0.0504987  
H92      H      0.220550000000     0.667280000000     0.040220000000     0.0709119  
H93      H      0.247890000000     0.855060000000     0.028020000000     0.0367766  
H94      H      0.160850000000     0.202280000000     0.956420000000     0.0515599  
H95      H      0.350250000000     0.206380000000     0.985160000000     0.0329941  
H96      H      0.200180000000     0.324420000000     0.046340000000     0.0382883  
H97      H      0.269850000000     0.316400000000     0.984680000000     0.0442175  
H98      H      0.304780000000     0.267720000000     0.031830000000     0.0508222  
H99      H      0.231070000000     0.152260000000     0.964150000000     0.0805836  
H100     H      0.095280000000     0.265060000000     0.969170000000     0.0479368  
H101     H      0.364600000000     0.201300000000     0.049790000000     0.0384832  
H102     H      0.228400000000     0.318790000000     0.935320000000     0.0520957  
H103     H      0.196530000000     0.159320000000     0.021170000000     0.0801606  
H104     H      0.202580000000     0.374450000000     0.002390000000     0.0420816  
H105     H      0.263270000000     0.091100000000     0.015050000000     0.0375417  
H106     H      0.169310000000     0.254850000000     0.917650000000     0.0542142  
H107     H      0.281530000000     0.224740000000     0.075250000000     0.0768685  
H108     H      0.128680000000     0.252770000000     0.025250000000     0.0552282  
H109     H      0.755850000000     0.949530000000     0.832210000000     0.0561451  
H110     H      0.782810000000     0.890170000000     0.656410000000     0.0277277  
H111     H      0.654350000000     0.052070000000     0.765960000000     0.0342952  
H112     H      0.655600000000     0.985740000000     0.708360000000     0.0448625  
H113     H      0.705510000000     0.933170000000     0.667330000000     0.0466058  
H114     H      0.810220000000     0.910740000000     0.752390000000     0.0604055  
H115     H      0.704180000000     0.000120000000     0.886170000000     0.0584406  
H116     H      0.772000000000     0.931190000000     0.605050000000     0.0380372  
H117     H      0.636270000000     0.941460000000     0.754380000000     0.0490999  
H118     H      0.809990000000     0.970580000000     0.780330000000     0.0730371  
H119     H      0.596820000000     0.021020000000     0.770470000000     0.0404571  
H120     H      0.876070000000     0.960790000000     0.717980000000     0.0352017  
H121     H      0.696230000000     0.925050000000     0.832730000000     0.0655808  
H122     H      0.733610000000     0.992730000000     0.659650000000     0.0673754  
H123     H      0.719540000000     0.035410000000     0.831660000000     0.0366859  
H124     H      0.149480000000     0.978490000000     0.776790000000     0.046086   
H125     H      0.335830000000     0.979360000000     0.776090000000     0.0235896  
H126     H      0.159920000000     0.095680000000     0.672350000000     0.0324819  
H127     H      0.241580000000     0.069020000000     0.677990000000     0.0450722  
H128     H      0.302420000000     0.037000000000     0.718120000000     0.047051   
H129     H      0.233120000000     0.960350000000     0.819920000000     0.0563645  
H130     H      0.082930000000     0.988990000000     0.718160000000     0.0504022  
H131     H      0.364820000000     0.037580000000     0.781460000000     0.0412537  
H132     H      0.230010000000     0.008290000000     0.655180000000     0.0515598  
H133     H      0.192730000000     0.011690000000     0.833200000000     0.0700762  
H134     H      0.176440000000     0.067690000000     0.614440000000     0.0372698  
H135     H      0.259440000000     0.999730000000     0.894440000000     0.0254852  
H136     H      0.165700000000     0.952010000000     0.718520000000     0.0510791  
H137     H      0.288880000000     0.082620000000     0.764660000000     0.0705804  
H138     H      0.106620000000     0.047530000000     0.735980000000     0.0426996  
H139     H      0.197020000000     0.948250000000     0.163900000000     0.0493897  
H140     H      0.203790000000     0.959430000000     0.353210000000     0.0287873  
H141     H      0.338860000000     0.002830000000     0.220340000000     0.0334685  
H142     H      0.306430000000     0.942430000000     0.281820000000     0.0439814  
H143     H      0.272630000000     0.002360000000     0.315870000000     0.0473303  
H144     H      0.162060000000     0.006340000000     0.198920000000     0.0736877  
H145     H      0.264800000000     0.955460000000     0.101570000000     0.0473292  
H146     H      0.205200000000     0.020380000000     0.376870000000     0.0357955  
H147     H      0.299590000000     0.898320000000     0.235480000000     0.0523852  
H148     H      0.178570000000     0.056450000000     0.235210000000     0.0850314  
H149     H      0.371780000000     0.945780000000     0.215320000000     0.0416812  
H150     H      0.118470000000     0.966100000000     0.266030000000     0.0231493  
H151     H      0.241880000000     0.902210000000     0.171380000000     0.0536995  
H152     H      0.236510000000     0.054080000000     0.300240000000     0.0583178  
H153     H      0.260920000000     0.009280000000     0.139310000000     0.0532286  
H154     H      0.767180000000     0.991560000000     0.150270000000     0.0475711  
H155     H      0.774610000000     0.012360000000     0.335370000000     0.027661   
H156     H      0.663890000000     0.879490000000     0.180030000000     0.0308718  
H157     H      0.672780000000     0.914600000000     0.258380000000     0.0450589  
H158     H      0.713450000000     0.953790000000     0.314010000000     0.0464447  
H159     H      0.811650000000     0.018840000000     0.233460000000     0.0587807  
H160     H      0.707820000000     0.975120000000     0.086420000000     0.0499534  
H161     H      0.775630000000     0.959430000000     0.375540000000     0.0368685  
H162     H      0.650100000000     0.974360000000     0.239290000000     0.0500074  
H163     H      0.824170000000     0.964730000000     0.197200000000     0.0712279  
H164     H      0.607790000000     0.911390000000     0.194510000000     0.0395189  
H165     H      0.885890000000     0.981000000000     0.262980000000     0.0282372  
H166     H      0.710380000000     0.021280000000     0.164650000000     0.0537762  
H167     H      0.757970000000     0.904610000000     0.306010000000     0.0675328  
H168     H      0.725560000000     0.919250000000     0.118300000000     0.0383143  
H169     H      0.013440000000     0.202530000000     0.822100000000     0.049216   
H170     H      0.897470000000     0.189270000000     0.660630000000     0.0321399  
H171     H      0.049680000000     0.335220000000     0.764220000000     0.029795   
H172     H      0.993000000000     0.309210000000     0.706000000000     0.0448658  
H173     H      0.948490000000     0.258150000000     0.666140000000     0.04683    
H174     H      0.969980000000     0.151680000000     0.782500000000     0.0683043  
H175     H      0.020150000000     0.268320000000     0.884020000000     0.0428213  
H176     H      0.935820000000     0.192840000000     0.606380000000     0.0400895  
H177     H      0.941050000000     0.313480000000     0.748060000000     0.051226   
H178     H      0.020840000000     0.147810000000     0.738910000000     0.0757932  
H179     H      0.998030000000     0.376590000000     0.767530000000     0.0352379  
H180     H      0.911690000000     0.126790000000     0.726090000000     0.0321776  
H181     H      0.956280000000     0.234600000000     0.834160000000     0.0551865  
H182     H      0.004140000000     0.223730000000     0.653570000000     0.0579843  
H183     H      0.062050000000     0.271270000000     0.832260000000     0.0303522  
H184     H      0.028370000000     0.703560000000     0.682900000000     0.0472054  
H185     H      0.017690000000     0.707140000000     0.866860000000     0.0318113  
H186     H      0.962640000000     0.845720000000     0.725650000000     0.0368335  
H187     H      0.024210000000     0.824310000000     0.789220000000     0.0453772  
H188     H      0.982210000000     0.781120000000     0.836450000000     0.0476425  
H189     H      0.960270000000     0.680890000000     0.712450000000     0.0660697  
H190     H      0.019670000000     0.765910000000     0.613840000000     0.0404316  
H191     H      0.957600000000     0.712010000000     0.893410000000     0.0416324  
H192     H      0.070220000000     0.815310000000     0.743490000000     0.0494325  
H193     H      0.913880000000     0.701090000000     0.753310000000     0.0766399  
H194     H      0.016150000000     0.882790000000     0.718420000000     0.0444993  
H195     H      0.995880000000     0.625620000000     0.771670000000     0.0223684  
H196     H      0.071820000000     0.750500000000     0.685160000000     0.050079   
H197     H      0.925230000000     0.754370000000     0.822600000000     0.0559389  
H198     H      0.965060000000     0.763200000000     0.651530000000     0.0349653  
H199     H      0.035070000000     0.707250000000     0.316020000000     0.0487054  
H200     H      0.917850000000     0.703330000000     0.149880000000     0.029998   
H201     H      0.072290000000     0.843290000000     0.261570000000     0.0327401  
H202     H      0.018490000000     0.815790000000     0.202360000000     0.0527998  
H203     H      0.973620000000     0.766780000000     0.160240000000     0.0541197  
H204     H      0.984300000000     0.660160000000     0.278470000000     0.0695733  
H205     H      0.045960000000     0.771390000000     0.378570000000     0.0403398  
H206     H      0.961000000000     0.701020000000     0.099430000000     0.0463179  
H207     H      0.964830000000     0.820790000000     0.241910000000     0.0705778  
H208     H      0.033580000000     0.650170000000     0.234000000000     0.0795757  
H209     H      0.019670000000     0.883050000000     0.266360000000     0.0517241  
H210     H      0.922280000000     0.645690000000     0.220040000000     0.0201448  
H211     H      0.979010000000     0.740730000000     0.329910000000     0.0579211  
H212     H      0.027050000000     0.728580000000     0.150030000000     0.076585   
H213     H      0.085410000000     0.775870000000     0.324870000000     0.0298567  
H214     H      0.925940000000     0.143610000000     0.199840000000     0.0499891  
H215     H      0.938260000000     0.335490000000     0.205910000000     0.0363084  
H216     H      0.999820000000     0.202190000000     0.327210000000     0.036031   
H217     H      0.927710000000     0.259150000000     0.312000000000     0.046049   
H218     H      0.984430000000     0.291420000000     0.271080000000     0.0515398  
H219     H      0.927900000000     0.217650000000     0.147820000000     0.078099   
H220     H      0.946610000000     0.082250000000     0.266830000000     0.0522767  
H221     H      0.000570000000     0.354940000000     0.207940000000     0.0357094  
H222     H      0.888140000000     0.208830000000     0.314280000000     0.0524109  
H223     H      0.985250000000     0.186220000000     0.157900000000     0.0788253  
H224     H      0.953660000000     0.197150000000     0.374970000000     0.0423372  
H225     H      0.978690000000     0.255480000000     0.089770000000     0.0406431  
H226     H      0.884770000000     0.146570000000     0.251540000000     0.052262   
H227     H      0.029880000000     0.271840000000     0.228420000000     0.0763296  
H228     H      0.995600000000     0.124300000000     0.254320000000     0.0569188  
N1       N      0.646310000000     0.832250000000     0.946610000000    -0.179561   
N2       N      0.820500000000     0.643190000000     0.007340000000    -0.168823   
N3       N      0.831830000000     0.316260000000     0.983660000000    -0.178689   
N4       N      0.652460000000     0.130200000000     0.024190000000    -0.169863   
N5       N      0.132870000000     0.650700000000     0.990070000000    -0.178079   
N6       N      0.317060000000     0.836160000000     0.996390000000    -0.169616   
N7       N      0.321670000000     0.143150000000     0.021640000000    -0.175139   
N8       N      0.143860000000     0.322400000000     0.992540000000    -0.166312   
N9       N      0.828780000000     0.952140000000     0.655840000000    -0.177493   
N10      N      0.646270000000     0.009870000000     0.832210000000    -0.168605   
N11      N      0.317520000000     0.016620000000     0.842570000000    -0.178945   
N12      N      0.126650000000     0.027100000000     0.662430000000    -0.168206   
N13      N      0.145780000000     0.005550000000     0.327470000000    -0.176215   
N14      N      0.322760000000     0.963490000000     0.154850000000    -0.16558    
N15      N      0.836750000000     0.966390000000     0.323960000000    -0.179285   
N16      N      0.653830000000     0.944260000000     0.137340000000    -0.169415   
N17      N      0.952590000000     0.133790000000     0.659000000000    -0.17435    
N18      N      0.006720000000     0.326090000000     0.829590000000    -0.169669   
N19      N      0.967690000000     0.655320000000     0.839260000000    -0.175191   
N20      N      0.006150000000     0.827920000000     0.661980000000    -0.168679   
N21      N      0.966650000000     0.642370000000     0.154940000000    -0.175197   
N22      N      0.029790000000     0.830590000000     0.326540000000    -0.167394   
N23      N      0.982240000000     0.312160000000     0.144650000000    -0.174977   
N24      N      0.959390000000     0.136150000000     0.323630000000    -0.165345   
O1       O      0.855330000000     0.965350000000     0.406430000000    -0.367047   
O2       O      0.916920000000     0.970360000000     0.348260000000    -0.345528   
O3       O      0.960780000000     0.116650000000     0.575470000000    -0.357473   
O4       O      0.967240000000     0.054850000000     0.632870000000    -0.32473    
O5       O      0.963440000000     0.116830000000     0.406610000000    -0.363392   
O6       O      0.973290000000     0.056340000000     0.348930000000    -0.340732   
O7       O      0.851250000000     0.949570000000     0.573490000000    -0.355828   
O8       O      0.907420000000     0.970000000000     0.631890000000    -0.339408   
O9       O      0.816000000000     0.014370000000     0.495370000000    -0.335714   
O10      O      0.832360000000     0.892520000000     0.484200000000    -0.514813   
O11      O      0.888710000000     0.122780000000     0.490260000000    -0.516275   
O12      O      0.006190000000     0.162510000000     0.490230000000    -0.327646   
O13      O      0.922920000000     0.025890000000     0.440980000000    -0.468677   
O14      O      0.919710000000     0.025400000000     0.539600000000    -0.614373   
O15      O      0.005430000000     0.845870000000     0.578130000000    -0.357221   
O16      O      0.996820000000     0.907440000000     0.634840000000    -0.353096   
O17      O      0.123650000000     0.005500000000     0.410340000000    -0.364631   
O18      O      0.065500000000     0.993890000000     0.351340000000    -0.335157   
O19      O      0.113350000000     0.020290000000     0.578730000000    -0.35257    
O20      O      0.054410000000     0.996900000000     0.635240000000    -0.348247   
O21      O      0.018560000000     0.848030000000     0.409240000000    -0.358942   
O22      O      0.008390000000     0.908660000000     0.350410000000    -0.343707   
O23      O      0.084810000000     0.840990000000     0.498220000000    -0.513286   
O24      O      0.967830000000     0.800790000000     0.490540000000    -0.328157   
O25      O      0.153190000000     0.944160000000     0.503460000000    -0.345712   
O26      O      0.145540000000     0.067370000000     0.489860000000    -0.511791   
O27      O      0.050470000000     0.937670000000     0.543160000000    -0.610088   
O28      O      0.053640000000     0.938100000000     0.444000000000    -0.469314   
O29      O      0.941190000000     0.914780000000     0.545220000000    -0.477543   
O30      O      0.032020000000     0.048030000000     0.439290000000    -0.622545   
O31      O      0.944670000000     0.915670000000     0.438530000000    -0.624443   
O32      O      0.028680000000     0.047890000000     0.545740000000    -0.474518   
O33      O      0.979450000000     0.394690000000     0.127340000000    -0.363746   
O34      O      0.985280000000     0.339850000000     0.063650000000    -0.341644   
O35      O      0.842390000000     0.562880000000     0.994600000000    -0.359318   
O36      O      0.901550000000     0.621180000000     0.000150000000    -0.349652   
O37      O      0.848760000000     0.398220000000     0.982740000000    -0.366419   
O38      O      0.911400000000     0.341910000000     0.988840000000    -0.345021   
O39      O      0.976570000000     0.561180000000     0.132830000000    -0.330257   
O40      O      0.973760000000     0.620690000000     0.072680000000    -0.346682   
O41      O      0.913030000000     0.477320000000     0.153500000000    -0.320984   
O42      O      0.036480000000     0.476200000000     0.164960000000    -0.513456   
O43      O      0.824820000000     0.474040000000     0.058650000000    -0.514096   
O44      O      0.811170000000     0.483910000000     0.932920000000    -0.327303   
O45      O      0.927560000000     0.430940000000     0.045940000000    -0.466387   
O46      O      0.924310000000     0.528220000000     0.048630000000    -0.612715   
O47      O      0.115010000000     0.569100000000     0.991760000000    -0.364548   
O48      O      0.052700000000     0.625880000000     0.995660000000    -0.345588   
O49      O      0.993260000000     0.406650000000     0.850420000000    -0.363308   
O50      O      0.994850000000     0.347050000000     0.911190000000    -0.354085   
O51      O      0.973930000000     0.572340000000     0.855510000000    -0.335635   
O52      O      0.975530000000     0.626770000000     0.919600000000    -0.353887   
O53      O      0.121550000000     0.403680000000     0.994410000000    -0.364027   
O54      O      0.062770000000     0.345120000000     0.987910000000    -0.345466   
O55      O      0.139890000000     0.486740000000     0.924160000000    -0.513019   
O56      O      0.153020000000     0.487060000000     0.049910000000    -0.326621   
O57      O      0.051720000000     0.498480000000     0.831360000000    -0.338704   
O58      O      0.929410000000     0.484060000000     0.817220000000    -0.510228   
O59      O      0.036330000000     0.535880000000     0.937370000000    -0.611388   
O60      O      0.040190000000     0.438170000000     0.934260000000    -0.470052   
O61      O      0.035930000000     0.535340000000     0.051270000000    -0.472963   
O62      O      0.929220000000     0.432200000000     0.932170000000    -0.624579   
O63      O      0.038980000000     0.430330000000     0.047780000000    -0.624957   
O64      O      0.924880000000     0.537690000000     0.935450000000    -0.471292   
O65      O      0.569940000000     0.116100000000     0.019110000000    -0.361759   
O66      O      0.625310000000     0.054380000000     0.003300000000    -0.352211   
O67      O      0.404480000000     0.961890000000     0.133110000000    -0.357057   
O68      O      0.346520000000     0.976220000000     0.073670000000    -0.346652   
O69      O      0.571040000000     0.951560000000     0.124580000000    -0.362461   
O70      O      0.625550000000     0.968150000000     0.061350000000    -0.350184   
O71      O      0.403220000000     0.123250000000     0.013220000000    -0.353193   
O72      O      0.345730000000     0.062890000000     0.012110000000    -0.344737   
O73      O      0.482490000000     0.131360000000     0.086130000000    -0.339109   
O74      O      0.490230000000     0.164280000000     0.964850000000    -0.515216   
O75      O      0.492200000000     0.024730000000     0.160340000000    -0.515045   
O76      O      0.486100000000     0.900410000000     0.157800000000    -0.328563   
O77      O      0.535240000000     0.029120000000     0.056020000000    -0.469169   
O78      O      0.438200000000     0.031410000000     0.059510000000    -0.60966    
O79      O      0.399100000000     0.012140000000     0.859570000000    -0.365276   
O80      O      0.342930000000     0.003430000000     0.922870000000    -0.347454   
O81      O      0.564700000000     0.850140000000     0.961230000000    -0.364585   
O82      O      0.621710000000     0.909410000000     0.970270000000    -0.334486   
O83      O      0.399010000000     0.852320000000     0.989140000000    -0.352838   
O84      O      0.342820000000     0.915420000000     0.988410000000    -0.354476   
O85      O      0.564360000000     0.009940000000     0.852730000000    -0.361336   
O86      O      0.621710000000     0.995730000000     0.912640000000    -0.346473   
O87      O      0.480970000000     0.946600000000     0.824860000000    -0.512636   
O88      O      0.481000000000     0.071490000000     0.829340000000    -0.328435   
O89      O      0.469960000000     0.842860000000     0.899350000000    -0.345855   
O90      O      0.488120000000     0.805070000000     0.017450000000    -0.511468   
O91      O      0.433320000000     0.942100000000     0.930180000000    -0.60952    
O92      O      0.530620000000     0.939320000000     0.926210000000    -0.470291   
O93      O      0.431520000000     0.052880000000     0.947590000000    -0.473557   
O94      O      0.536430000000     0.918300000000     0.037520000000    -0.623844   
O95      O      0.535900000000     0.050160000000     0.944020000000    -0.626326   
O96      O      0.432110000000     0.921390000000     0.042340000000    -0.473161   
Zr1      Zr     0.887840000000     0.960350000000     0.490420000000     1.29875    
Zr2      Zr     0.967880000000     0.082180000000     0.491060000000     1.29439    
Zr3      Zr     0.005660000000     0.881260000000     0.493220000000     1.2918     
Zr4      Zr     0.085700000000     0.002970000000     0.493930000000     1.29167    
Zr5      Zr     0.989550000000     0.982130000000     0.398160000000     1.27214    
Zr6      Zr     0.983470000000     0.981310000000     0.585280000000     1.27612    
Zr7      Zr     0.982030000000     0.479420000000     0.094900000000     1.30365    
Zr8      Zr     0.880890000000     0.481250000000     0.988710000000     1.29756    
Zr9      Zr     0.083370000000     0.485670000000     0.994100000000     1.29749    
Zr10     Zr     0.982200000000     0.487970000000     0.888330000000     1.29679    
Zr11     Zr     0.985580000000     0.391040000000     0.988910000000     1.27032    
Zr12     Zr     0.978880000000     0.576080000000     0.994720000000     1.26358    
Zr13     Zr     0.485870000000     0.086310000000     0.008230000000     1.29341    
Zr14     Zr     0.486840000000     0.965460000000     0.094650000000     1.2909     
Zr15     Zr     0.482250000000     0.005400000000     0.891350000000     1.29585    
Zr16     Zr     0.482110000000     0.884880000000     0.977800000000     1.28819    
Zr17     Zr     0.575580000000     0.983250000000     0.989240000000     1.27954    
Zr18     Zr     0.392370000000     0.988150000000     0.996470000000     1.26639    


