data_structure

_audit_creation_method RASPA-1.0
_audit_creation_date 2023-5-19
_audit_author_name 'Poobodin Mano'

_cell_length_a    45.9218
_cell_length_b    50.782
_cell_length_c    22.9794
_cell_angle_alpha 90.0037
_cell_angle_beta  90.0036
_cell_angle_gamma 89.9707
_cell_volume      53588

_symmetry_cell_setting          triclinic
_symmetry_space_group_name_Hall 'P 1'
_symmetry_space_group_name_H-M  'P 1'
_symmetry_Int_Tables_number     1

_symmetry_equiv_pos_as_xyz 'x,y,z'

loop_
_atom_site_label
_atom_site_type_symbol
_atom_site_fract_x
_atom_site_fract_y
_atom_site_fract_z
_atom_site_charge
C1       C      0.470590000000     0.409310000000     0.268350000000     0.402541   
C2       C      0.436150000000     0.042640000000     0.058550000000     0.403377   
C3       C      0.451990000000     0.406930000000     0.068890000000     0.403828   
C4       C      0.456650000000     0.045430000000     0.274570000000     0.405883   
C5       C      0.050610000000     0.056910000000     0.230370000000     0.402962   
C6       C      0.055430000000     0.419100000000     0.035380000000     0.403694   
C7       C      0.028140000000     0.053740000000     0.024790000000     0.405202   
C8       C      0.070460000000     0.420840000000     0.231260000000     0.403216   
C9       C      0.306620000000     0.283770000000     0.489470000000     0.403264   
C10      C      0.298020000000     0.150240000000     0.279450000000     0.405278   
C11      C      0.325760000000     0.284330000000     0.300650000000     0.404662   
C12      C      0.276580000000     0.149240000000     0.481430000000     0.409009   
C13      C      0.182460000000     0.164390000000     0.447730000000     0.404077   
C14      C      0.223280000000     0.301380000000     0.257860000000     0.402994   
C15      C      0.199990000000     0.166240000000     0.241390000000     0.403012   
C16      C      0.204270000000     0.299670000000     0.454210000000     0.403765   
C17      C      0.096180000000     0.139950000000     0.250630000000    -0.0453871  
C18      C      0.056790000000     0.105600000000     0.238420000000    -0.0216925  
C19      C      0.135130000000     0.144500000000     0.179680000000     0.0190335  
C20      C      0.083420000000     0.119940000000     0.217070000000     0.0162543  
C21      C      0.164040000000     0.156180000000     0.162700000000    -0.0244151  
C22      C      0.096390000000     0.112670000000     0.164060000000    -0.0390281  
C23      C      0.122090000000     0.124820000000     0.145530000000    -0.046345   
C24      C      0.121750000000     0.152200000000     0.231950000000    -0.039123   
C25      C      0.089030000000     0.104830000000     0.405900000000    -0.0473149  
C26      C      0.050420000000     0.071780000000     0.434170000000    -0.0217547  
C27      C      0.135630000000     0.106520000000     0.455860000000     0.0156266  
C28      C      0.080100000000     0.083910000000     0.441610000000     0.0206489  
C29      C      0.165540000000     0.118300000000     0.462310000000    -0.0226152  
C30      C      0.099270000000     0.074230000000     0.484190000000    -0.0393884  
C31      C      0.126760000000     0.085530000000     0.491450000000    -0.044799   
C32      C      0.116640000000     0.115940000000     0.412710000000    -0.0388896  
C33      C      0.150830000000     0.327260000000     0.245210000000    -0.0387161  
C34      C      0.194650000000     0.323430000000     0.179380000000    -0.0224807  
C35      C      0.114890000000     0.361940000000     0.232280000000     0.0167141  
C36      C      0.166950000000     0.336970000000     0.197910000000     0.0198383  
C37      C      0.086390000000     0.374590000000     0.248980000000    -0.0223875  
C38      C      0.156680000000     0.359120000000     0.167630000000    -0.0459952  
C39      C      0.130780000000     0.371410000000     0.184420000000    -0.0389844  
C40      C      0.125060000000     0.339690000000     0.262340000000    -0.0463605  
C41      C      0.401390000000     0.087360000000     0.235740000000    -0.0358226  
C42      C      0.445540000000     0.092040000000     0.300860000000    -0.0201069  
C43      C      0.362100000000     0.119370000000     0.237610000000     0.0215375  
C44      C      0.416030000000     0.101100000000     0.280040000000     0.0183693  
C45      C      0.334180000000     0.129820000000     0.212400000000    -0.0227015  
C46      C      0.403530000000     0.124240000000     0.302510000000    -0.0457528  
C47      C      0.376780000000     0.133340000000     0.281360000000    -0.0412128  
C48      C      0.374500000000     0.096200000000     0.215460000000    -0.0469181  
C49      C      0.397380000000     0.346880000000     0.101140000000    -0.040771   
C50      C      0.446110000000     0.358460000000     0.057430000000    -0.0203148  
C51      C      0.369340000000     0.309380000000     0.067160000000     0.015605   
C52      C      0.419400000000     0.341250000000     0.060540000000     0.0136169  
C53      C      0.342190000000     0.292780000000     0.069090000000    -0.0219873  
C54      C      0.416180000000     0.319540000000     0.023270000000    -0.0455442  
C55      C      0.391320000000     0.303740000000     0.026520000000    -0.0416507  
C56      C      0.372500000000     0.331130000000     0.104300000000    -0.0464038  
C57      C      0.379810000000     0.124530000000     0.036560000000    -0.0414189  
C58      C      0.416900000000     0.088110000000     0.044080000000    -0.0208377  
C59      C      0.328610000000     0.117310000000     0.057830000000     0.0213612  
C60      C      0.385720000000     0.097680000000     0.045440000000     0.0131152  
C61      C      0.298520000000     0.127950000000     0.068520000000    -0.021412   
C62      C      0.362670000000     0.080750000000     0.060640000000    -0.0387853  
C63      C      0.334340000000     0.090430000000     0.065890000000    -0.0489885  
C64      C      0.351480000000     0.134260000000     0.042600000000    -0.0460401  
C65      C      0.150420000000     0.359970000000     0.415860000000    -0.0403103  
C66      C      0.197900000000     0.348200000000     0.464260000000    -0.0214171  
C67      C      0.117810000000     0.392860000000     0.456630000000     0.017659   
C68      C      0.170610000000     0.364630000000     0.460590000000     0.0158084  
C69      C      0.089630000000     0.408040000000     0.454790000000    -0.0237855  
C70      C      0.164340000000     0.383710000000     0.002980000000    -0.0447441  
C71      C      0.138140000000     0.397740000000     0.001000000000    -0.0406867  
C72      C      0.124220000000     0.373960000000     0.413910000000    -0.0455439  
C73      C      0.428380000000     0.337570000000     0.332820000000    -0.0435276  
C74      C      0.472930000000     0.361900000000     0.297580000000    -0.0206602  
C75      C      0.399580000000     0.310260000000     0.267600000000     0.0147767  
C76      C      0.447690000000     0.343550000000     0.287300000000     0.0182434  
C77      C      0.374360000000     0.291820000000     0.256790000000    -0.0207184  
C78      C      0.442980000000     0.332510000000     0.232140000000    -0.0413636  
C79      C      0.419350000000     0.315730000000     0.222620000000    -0.0455731  
C80      C      0.404620000000     0.320940000000     0.323160000000    -0.0417328  
H1       H      0.436820000000     0.011920000000     0.171180000000     0.196465   
H2       H      0.496290000000     0.443830000000     0.029730000000     0.188573   
H3       H      0.055770000000     0.025540000000     0.126400000000     0.194555   
H4       H      0.017830000000     0.447040000000     0.268900000000     0.193423   
H5       H      0.452100000000     0.459170000000     0.461900000000     0.131324   
H6       H      0.018430000000     0.496280000000     0.425300000000     0.199452   
H7       H      0.097950000000     0.483960000000     0.061770000000     0.138479   
H8       H      0.107610000000     0.008260000000     0.166110000000     0.193248   
H9       H      0.050170000000     0.002990000000     0.337740000000     0.145057   
H10      H      0.484670000000     0.460610000000     0.369780000000     0.188748   
H11      H      0.408810000000     0.459680000000     0.236970000000     0.14154    
H12      H      0.390120000000     0.489120000000     0.114450000000     0.195943   
H13      H      0.117340000000     0.484410000000     0.212440000000     0.203988   
H14      H      0.468390000000     0.489850000000     0.377980000000     0.20825    
H15      H      0.392940000000     0.456330000000     0.119220000000     0.199809   
H16      H      0.032560000000     0.465890000000     0.425510000000     0.199051   
H17      H      0.304330000000     0.179350000000     0.385150000000     0.197859   
H18      H      0.269280000000     0.262290000000     0.251660000000     0.18899    
H19      H      0.185960000000     0.197980000000     0.343750000000     0.194751   
H20      H      0.247990000000     0.260500000000     0.491270000000     0.192816   
H21      H      0.308250000000     0.241580000000     0.184350000000     0.132323   
H22      H      0.230510000000     0.217100000000     0.145120000000     0.20082    
H23      H      0.159920000000     0.253290000000     0.282030000000     0.137135   
H24      H      0.143080000000     0.229260000000     0.382100000000     0.188478   
H25      H      0.199960000000     0.214320000000     0.056710000000     0.141974   
H26      H      0.275900000000     0.236550000000     0.089660000000     0.194893   
H27      H      0.348100000000     0.219030000000     0.454750000000     0.136138   
H28      H      0.358270000000     0.200570000000     0.347930000000     0.187153   
H29      H      0.139480000000     0.248110000000     0.441400000000     0.203318   
H30      H      0.277220000000     0.203640000000     0.093350000000     0.209241   
H31      H      0.365800000000     0.211330000000     0.280760000000     0.200404   
H32      H      0.228790000000     0.250040000000     0.145240000000     0.198505   
H33      H      0.189160000000     0.128710000000     0.213490000000     0.101396   
H34      H      0.047620000000     0.115210000000     0.277820000000     0.0330195  
H35      H      0.039760000000     0.106760000000     0.204150000000     0.0486941  
H36      H      0.131510000000     0.167310000000     0.258940000000     0.0404985  
H37      H      0.086570000000     0.145890000000     0.291620000000     0.0352615  
H38      H      0.171310000000     0.148830000000     0.119490000000     0.0364803  
H39      H      0.086870000000     0.097250000000     0.137580000000     0.0412749  
H40      H      0.132050000000     0.118530000000     0.105140000000     0.0383222  
H41      H      0.161600000000     0.177920000000     0.159490000000     0.0512188  
H42      H      0.081680000000     0.075270000000     0.281770000000     0.0996379  
H43      H      0.147960000000     0.153780000000     0.000970000000     0.0975826  
H44      H      0.038090000000     0.081810000000     0.398910000000     0.0351472  
H45      H      0.052920000000     0.050920000000     0.420340000000     0.0476635  
H46      H      0.123200000000     0.131920000000     0.384340000000     0.0407774  
H47      H      0.074660000000     0.112550000000     0.372680000000     0.0365759  
H48      H      0.177560000000     0.109400000000     0.499430000000     0.0372592  
H49      H      0.092940000000     0.057980000000     0.011920000000     0.0483265  
H50      H      0.141160000000     0.077790000000     0.024650000000     0.0372516  
H51      H      0.177720000000     0.113740000000     0.421750000000     0.0511028  
H52      H      0.026490000000     0.093010000000     0.499880000000     0.0997408  
H53      H      0.106690000000     0.410370000000     0.280080000000     0.0981918  
H54      H      0.189400000000     0.303220000000     0.164090000000     0.0472645  
H55      H      0.204750000000     0.333780000000     0.141830000000     0.032944   
H56      H      0.112940000000     0.331760000000     0.298780000000     0.0358201  
H57      H      0.158180000000     0.310040000000     0.268830000000     0.0445922  
H58      H      0.070390000000     0.369360000000     0.214590000000     0.0501413  
H59      H      0.168620000000     0.366830000000     0.130810000000     0.0372235  
H60      H      0.123070000000     0.388240000000     0.159870000000     0.044673   
H61      H      0.077980000000     0.366610000000     0.290740000000     0.0325447  
H62      H      0.224270000000     0.341440000000     0.240250000000     0.100228   
H63      H      0.302510000000     0.110060000000     0.265890000000     0.101485   
H64      H      0.462310000000     0.097640000000     0.268250000000     0.0477043  
H65      H      0.451490000000     0.102210000000     0.342030000000     0.0331649  
H66      H      0.363530000000     0.085030000000     0.181940000000     0.0404176  
H67      H      0.410670000000     0.069820000000     0.216550000000     0.0448293  
H68      H      0.337760000000     0.150240000000     0.196450000000     0.0488594  
H69      H      0.414580000000     0.135440000000     0.336000000000     0.0356214  
H70      H      0.367690000000     0.151400000000     0.298680000000     0.0421232  
H71      H      0.327450000000     0.117820000000     0.174650000000     0.0353213  
H72      H      0.435410000000     0.057080000000     0.350080000000     0.101239   
H73      H      0.319960000000     0.321040000000     0.014430000000     0.101379   
H74      H      0.458010000000     0.356570000000     0.099320000000     0.0459842  
H75      H      0.460990000000     0.351940000000     0.022090000000     0.0349628  
H76      H      0.355740000000     0.335900000000     0.135770000000     0.0388509  
H77      H      0.399520000000     0.363490000000     0.130460000000     0.0440447  
H78      H      0.348540000000     0.271750000000     0.064370000000     0.0460535  
H79      H      0.432830000000     0.314860000000     0.491490000000     0.0361126  
H80      H      0.389100000000     0.287210000000     0.497060000000     0.0407597  
H81      H      0.330660000000     0.295180000000     0.111310000000     0.031311   
H82      H      0.420080000000     0.389350000000     0.018570000000     0.099406   
H83      H      0.274320000000     0.109290000000     0.499740000000     0.101383   
H84      H      0.429440000000     0.099130000000     0.010610000000     0.0376904  
H85      H      0.426680000000     0.092440000000     0.087290000000     0.0481645  
H86      H      0.347500000000     0.155100000000     0.036490000000     0.0537552  
H87      H      0.397250000000     0.138060000000     0.025980000000     0.0375682  
H88      H      0.286890000000     0.115470000000     0.100760000000     0.034149   
H89      H      0.366490000000     0.060120000000     0.069710000000     0.0393225  
H90      H      0.317020000000     0.077060000000     0.078150000000     0.0383287  
H91      H      0.299670000000     0.148150000000     0.087120000000     0.0449901  
H92      H      0.405760000000     0.052900000000     0.495940000000     0.10102    
H93      H      0.069440000000     0.381270000000     0.016030000000     0.0999728  
H94      H      0.209610000000     0.349810000000     0.422050000000     0.049399   
H95      H      0.212710000000     0.355550000000     0.498920000000     0.0365135  
H96      H      0.108900000000     0.369910000000     0.379290000000     0.0369166  
H97      H      0.154820000000     0.345240000000     0.382920000000     0.042884   
H98      H      0.095190000000     0.429360000000     0.455050000000     0.0495448  
H99      H      0.179640000000     0.387690000000     0.037740000000     0.0358156  
H100     H      0.133640000000     0.412310000000     0.034240000000     0.0419313  
H101     H      0.077230000000     0.403840000000     0.414280000000     0.0343848  
H102     H      0.172800000000     0.317340000000     0.005510000000     0.099149   
H103     H      0.344450000000     0.321260000000     0.291200000000     0.100754   
H104     H      0.484140000000     0.356210000000     0.338570000000     0.0316459  
H105     H      0.489390000000     0.359930000000     0.262340000000     0.0463043  
H106     H      0.390210000000     0.316390000000     0.359110000000     0.0438696  
H107     H      0.431750000000     0.345760000000     0.375840000000     0.0374649  
H108     H      0.370230000000     0.289360000000     0.209410000000     0.0346484  
H109     H      0.457750000000     0.336650000000     0.196590000000     0.0409476  
H110     H      0.416620000000     0.306870000000     0.180130000000     0.0403833  
H111     H      0.380790000000     0.272300000000     0.274590000000     0.0425783  
H112     H      0.448640000000     0.393130000000     0.338480000000     0.0972056  
N1       N      0.185820000000     0.148850000000     0.206500000000    -0.21226    
N2       N      0.064420000000     0.078280000000     0.252780000000    -0.213405   
N3       N      0.163500000000     0.146860000000     0.471360000000    -0.213339   
N4       N      0.033790000000     0.074190000000     0.488380000000    -0.212683   
N5       N      0.089620000000     0.403280000000     0.254300000000    -0.213121   
N6       N      0.215570000000     0.323290000000     0.227590000000    -0.213653   
N7       N      0.310690000000     0.128680000000     0.255370000000    -0.212796   
N8       N      0.445500000000     0.063590000000     0.311900000000    -0.212975   
N9       N      0.322580000000     0.300840000000     0.021950000000    -0.213339   
N10      N      0.437630000000     0.385850000000     0.046590000000    -0.214141   
N11      N      0.281970000000     0.127560000000     0.014220000000    -0.212871   
N12      N      0.418550000000     0.059920000000     0.030310000000    -0.213342   
N13      N      0.071440000000     0.401200000000     0.005160000000    -0.213479   
N14      N      0.190150000000     0.320800000000     0.476950000000    -0.213041   
N15      N      0.347540000000     0.301020000000     0.285210000000    -0.214305   
N16      N      0.462390000000     0.389030000000     0.303300000000    -0.212605   
O1       O      0.461130000000     0.432400000000     0.281820000000    -0.385351   
O2       O      0.487490000000     0.404530000000     0.224890000000    -0.37386    
O3       O      0.433550000000     0.018120000000     0.045210000000    -0.374575   
O4       O      0.454250000000     0.051550000000     0.096520000000    -0.375358   
O5       O      0.441370000000     0.429840000000     0.057770000000    -0.388532   
O6       O      0.475040000000     0.402930000000     0.099580000000    -0.376468   
O7       O      0.454500000000     0.021040000000     0.289300000000    -0.378661   
O8       O      0.468580000000     0.053480000000     0.227100000000    -0.376258   
O9       O      0.414540000000     0.475050000000     0.260880000000    -0.346011   
O10      O      0.474940000000     0.475700000000     0.353080000000    -0.527386   
O11      O      0.401550000000     0.473240000000     0.110510000000    -0.52945    
O12      O      0.437770000000     0.471650000000     0.478530000000    -0.335347   
O13      O      0.462430000000     0.451280000000     0.165340000000    -0.500772   
O14      O      0.454770000000     0.002360000000     0.165120000000    -0.630175   
O15      O      0.060840000000     0.034020000000     0.243600000000    -0.382768   
O16      O      0.028480000000     0.060660000000     0.197070000000    -0.376678   
O17      O      0.057090000000     0.443490000000     0.020430000000    -0.386501   
O18      O      0.039590000000     0.410500000000     0.077540000000    -0.3761     
O19      O      0.037320000000     0.030620000000     0.010600000000    -0.376897   
O20      O      0.013620000000     0.058800000000     0.071320000000    -0.374587   
O21      O      0.075000000000     0.445500000000     0.241110000000    -0.379161   
O22      O      0.048970000000     0.411900000000     0.201330000000    -0.375083   
O23      O      0.102350000000     0.494840000000     0.193980000000    -0.527725   
O24      O      0.061860000000     0.488140000000     0.322440000000    -0.350269   
O25      O      0.087630000000     0.495310000000     0.033440000000    -0.348362   
O26      O      0.027250000000     0.481790000000     0.446060000000    -0.531215   
O27      O      0.041080000000     0.012270000000     0.133040000000    -0.630987   
O28      O      0.048230000000     0.461450000000     0.133640000000    -0.49801    
O29      O      0.006020000000     0.007950000000     0.235100000000    -0.497485   
O30      O      0.497520000000     0.455490000000     0.062840000000    -0.63224    
O31      O      0.013230000000     0.457820000000     0.235510000000    -0.630885   
O32      O      0.490290000000     0.005750000000     0.063230000000    -0.495724   
O33      O      0.308350000000     0.258950000000     0.000860000000    -0.383603   
O34      O      0.290760000000     0.293630000000     0.448820000000    -0.37696    
O35      O      0.309000000000     0.173080000000     0.268560000000    -0.376209   
O36      O      0.275670000000     0.146420000000     0.311980000000    -0.375407   
O37      O      0.328770000000     0.259710000000     0.288530000000    -0.386282   
O38      O      0.303530000000     0.294130000000     0.327050000000    -0.37391    
O39      O      0.286450000000     0.171690000000     0.498830000000    -0.37985    
O40      O      0.261550000000     0.145910000000     0.434930000000    -0.374917   
O41      O      0.337590000000     0.206940000000     0.481220000000    -0.35128    
O42      O      0.278070000000     0.219660000000     0.070750000000    -0.530065   
O43      O      0.351920000000     0.208280000000     0.311650000000    -0.521923   
O44      O      0.308390000000     0.222450000000     0.192580000000    -0.353102   
O45      O      0.298940000000     0.243310000000     0.385000000000    -0.498838   
O46      O      0.290070000000     0.193160000000     0.380250000000    -0.635454   
O47      O      0.179310000000     0.188820000000     0.461500000000    -0.384946   
O48      O      0.202340000000     0.155680000000     0.413290000000    -0.375206   
O49      O      0.212730000000     0.278980000000     0.241890000000    -0.384928   
O50      O      0.240890000000     0.304430000000     0.300820000000    -0.377429   
O51      O      0.197640000000     0.191070000000     0.230530000000    -0.377763   
O52      O      0.214930000000     0.156630000000     0.283690000000    -0.376197   
O53      O      0.193290000000     0.276820000000     0.464640000000    -0.380884   
O54      O      0.227330000000     0.303570000000     0.423500000000    -0.372401   
O55      O      0.151500000000     0.237490000000     0.416080000000    -0.5263     
O56      O      0.193300000000     0.231770000000     0.042810000000    -0.349517   
O57      O      0.165450000000     0.240130000000     0.252200000000    -0.345076   
O58      O      0.227600000000     0.233460000000     0.165740000000    -0.528402   
O59      O      0.204340000000     0.206710000000     0.350450000000    -0.634809   
O60      O      0.213770000000     0.256990000000     0.355810000000    -0.499808   
O61      O      0.239650000000     0.199390000000     0.451590000000    -0.500454   
O62      O      0.264140000000     0.250830000000     0.283580000000    -0.630784   
O63      O      0.248830000000     0.249520000000     0.456970000000    -0.630498   
O64      O      0.254720000000     0.200650000000     0.278380000000    -0.497229   
Zr1      Zr     0.467150000000     0.477920000000     0.249570000000     1.3814     
Zr2      Zr     0.451730000000     0.475820000000     0.080270000000     1.37804    
Zr3      Zr     0.051890000000     0.487840000000     0.218430000000     1.37641    
Zr4      Zr     0.036270000000     0.485740000000     0.048880000000     1.38159    
Zr5      Zr     0.008880000000     0.431820000000     0.149520000000     1.37508    
Zr6      Zr     0.494450000000     0.031660000000     0.148890000000     1.37768    
Zr7      Zr     0.286410000000     0.217770000000     0.467460000000     1.37944    
Zr8      Zr     0.301280000000     0.218890000000     0.297250000000     1.37699    
Zr9      Zr     0.202280000000     0.231000000000     0.438450000000     1.37829    
Zr10     Zr     0.217170000000     0.232490000000     0.268300000000     1.37796    
Zr11     Zr     0.260970000000     0.274700000000     0.372720000000     1.37574    
Zr12     Zr     0.242770000000     0.175710000000     0.362530000000     1.38249    
C81      C      0.470590000000     0.409310000000     0.768350000000     0.402316   
C82      C      0.436150000000     0.042640000000     0.558550000000     0.403354   
C83      C      0.451990000000     0.406930000000     0.568890000000     0.403653   
C84      C      0.456660000000     0.045420000000     0.774570000000     0.40597    
C85      C      0.050610000000     0.056910000000     0.730370000000     0.40294    
C86      C      0.055430000000     0.419100000000     0.535380000000     0.403643   
C87      C      0.028130000000     0.053740000000     0.524790000000     0.405248   
C88      C      0.070460000000     0.420840000000     0.731270000000     0.403208   
C89      C      0.306620000000     0.283770000000     0.989480000000     0.403115   
C90      C      0.298020000000     0.150240000000     0.779450000000     0.405396   
C91      C      0.325760000000     0.284330000000     0.800650000000     0.404661   
C92      C      0.276580000000     0.149240000000     0.981420000000     0.408937   
C93      C      0.182460000000     0.164390000000     0.947730000000     0.404077   
C94      C      0.223280000000     0.301380000000     0.757850000000     0.402968   
C95      C      0.199990000000     0.166240000000     0.741390000000     0.403013   
C96      C      0.204270000000     0.299670000000     0.954220000000     0.403755   
C97      C      0.096180000000     0.139950000000     0.750640000000    -0.0454354  
C98      C      0.056790000000     0.105600000000     0.738420000000    -0.0217047  
C99      C      0.135130000000     0.144500000000     0.679680000000     0.0190071  
C100     C      0.083430000000     0.119940000000     0.717070000000     0.0162976  
C101     C      0.164040000000     0.156180000000     0.662700000000    -0.0243958  
C102     C      0.096390000000     0.112670000000     0.664060000000    -0.0390897  
C103     C      0.122090000000     0.124820000000     0.645530000000    -0.0463004  
C104     C      0.121750000000     0.152200000000     0.731950000000    -0.0391204  
C105     C      0.089030000000     0.104840000000     0.905900000000    -0.0473319  
C106     C      0.050420000000     0.071780000000     0.934170000000    -0.0217386  
C107     C      0.135630000000     0.106520000000     0.955860000000     0.0156092  
C108     C      0.080100000000     0.083910000000     0.941610000000     0.0206412  
C109     C      0.165540000000     0.118300000000     0.962310000000    -0.0226196  
C110     C      0.099270000000     0.074230000000     0.984190000000    -0.0394575  
C111     C      0.126760000000     0.085530000000     0.991450000000    -0.0448918  
C112     C      0.116630000000     0.115940000000     0.912710000000    -0.0388523  
C113     C      0.150830000000     0.327260000000     0.745210000000    -0.0387198  
C114     C      0.194650000000     0.323430000000     0.679380000000    -0.0224619  
C115     C      0.114890000000     0.361940000000     0.732270000000     0.0167088  
C116     C      0.166950000000     0.336970000000     0.697910000000     0.019839   
C117     C      0.086390000000     0.374590000000     0.748980000000    -0.02237    
C118     C      0.156680000000     0.359120000000     0.667630000000    -0.0460172  
C119     C      0.130780000000     0.371410000000     0.684420000000    -0.0389781  
C120     C      0.125060000000     0.339690000000     0.762340000000    -0.0463566  
C121     C      0.401400000000     0.087360000000     0.735740000000    -0.0358703  
C122     C      0.445540000000     0.092040000000     0.800860000000    -0.0201292  
C123     C      0.362100000000     0.119370000000     0.737620000000     0.0215255  
C124     C      0.416030000000     0.101100000000     0.780040000000     0.0184036  
C125     C      0.334180000000     0.129820000000     0.712400000000    -0.0226814  
C126     C      0.403530000000     0.124240000000     0.802510000000    -0.0457736  
C127     C      0.376780000000     0.133340000000     0.781360000000    -0.0412111  
C128     C      0.374500000000     0.096200000000     0.715460000000    -0.046905   
C129     C      0.397390000000     0.346880000000     0.601130000000    -0.0407705  
C130     C      0.446110000000     0.358460000000     0.557430000000    -0.0203163  
C131     C      0.369340000000     0.309370000000     0.567150000000     0.0156363  
C132     C      0.419400000000     0.341260000000     0.560540000000     0.0136429  
C133     C      0.342190000000     0.292770000000     0.569090000000    -0.0220631  
C134     C      0.416180000000     0.319540000000     0.523260000000    -0.0456323  
C135     C      0.391320000000     0.303740000000     0.526520000000    -0.0417322  
C136     C      0.372500000000     0.331130000000     0.604310000000    -0.0464368  
C137     C      0.379810000000     0.124530000000     0.536560000000    -0.0413853  
C138     C      0.416900000000     0.088110000000     0.544070000000    -0.0207995  
C139     C      0.328610000000     0.117310000000     0.557830000000     0.0213898  
C140     C      0.385730000000     0.097680000000     0.545440000000     0.0130373  
C141     C      0.298520000000     0.127950000000     0.568520000000    -0.0214469  
C142     C      0.362670000000     0.080760000000     0.560630000000    -0.0386833  
C143     C      0.334340000000     0.090430000000     0.565890000000    -0.0490507  
C144     C      0.351480000000     0.134260000000     0.542600000000    -0.0460764  
C145     C      0.150420000000     0.359970000000     0.915860000000    -0.0403086  
C146     C      0.197900000000     0.348200000000     0.964270000000    -0.0213752  
C147     C      0.117810000000     0.392860000000     0.956620000000     0.017565   
C148     C      0.170610000000     0.364630000000     0.960590000000     0.0157033  
C149     C      0.089630000000     0.408040000000     0.954790000000    -0.0238125  
C150     C      0.164340000000     0.383710000000     0.502990000000    -0.0448472  
C151     C      0.138140000000     0.397740000000     0.501000000000    -0.0407505  
C152     C      0.124220000000     0.373960000000     0.913910000000    -0.0455079  
C153     C      0.428380000000     0.337570000000     0.832810000000    -0.0434779  
C154     C      0.472930000000     0.361900000000     0.797580000000    -0.0206648  
C155     C      0.399580000000     0.310260000000     0.767600000000     0.0147548  
C156     C      0.447700000000     0.343560000000     0.787300000000     0.0182104  
C157     C      0.374360000000     0.291820000000     0.756790000000    -0.0206678  
C158     C      0.442980000000     0.332510000000     0.732140000000    -0.041352   
C159     C      0.419350000000     0.315740000000     0.722620000000    -0.0455375  
C160     C      0.404620000000     0.320940000000     0.823160000000    -0.0417663  
H113     H      0.436820000000     0.011920000000     0.671180000000     0.196463   
H114     H      0.496290000000     0.443830000000     0.529730000000     0.188359   
H115     H      0.055770000000     0.025540000000     0.626400000000     0.194535   
H116     H      0.017820000000     0.447040000000     0.768900000000     0.193483   
H117     H      0.452100000000     0.459170000000     0.961900000000     0.131438   
H118     H      0.018430000000     0.496280000000     0.925300000000     0.199358   
H119     H      0.097950000000     0.483960000000     0.561770000000     0.138482   
H120     H      0.107610000000     0.008270000000     0.666110000000     0.193039   
H121     H      0.050170000000     0.002990000000     0.837740000000     0.145053   
H122     H      0.484670000000     0.460610000000     0.869780000000     0.188737   
H123     H      0.408810000000     0.459680000000     0.736980000000     0.141591   
H124     H      0.390120000000     0.489130000000     0.614450000000     0.195682   
H125     H      0.117340000000     0.484410000000     0.712440000000     0.203984   
H126     H      0.468390000000     0.489850000000     0.877980000000     0.208241   
H127     H      0.392940000000     0.456330000000     0.619230000000     0.199704   
H128     H      0.032560000000     0.465890000000     0.925510000000     0.198966   
H129     H      0.304330000000     0.179350000000     0.885150000000     0.197862   
H130     H      0.269280000000     0.262290000000     0.751660000000     0.188986   
H131     H      0.185960000000     0.197980000000     0.843750000000     0.194733   
H132     H      0.247990000000     0.260500000000     0.991270000000     0.192784   
H133     H      0.308250000000     0.241580000000     0.684360000000     0.132328   
H134     H      0.230510000000     0.217100000000     0.645120000000     0.200818   
H135     H      0.159920000000     0.253290000000     0.782030000000     0.137136   
H136     H      0.143080000000     0.229260000000     0.882110000000     0.18858    
H137     H      0.199960000000     0.214320000000     0.556710000000     0.141958   
H138     H      0.275900000000     0.236550000000     0.589660000000     0.194894   
H139     H      0.348100000000     0.219030000000     0.954750000000     0.136193   
H140     H      0.358270000000     0.200570000000     0.847940000000     0.187068   
H141     H      0.139480000000     0.248110000000     0.941400000000     0.203326   
H142     H      0.277220000000     0.203640000000     0.593350000000     0.209237   
H143     H      0.365800000000     0.211320000000     0.780770000000     0.200504   
H144     H      0.228790000000     0.250040000000     0.645240000000     0.198497   
H145     H      0.189160000000     0.128710000000     0.713490000000     0.101381   
H146     H      0.047620000000     0.115210000000     0.777820000000     0.0330201  
H147     H      0.039760000000     0.106770000000     0.704150000000     0.0486798  
H148     H      0.131510000000     0.167300000000     0.758950000000     0.0404982  
H149     H      0.086570000000     0.145890000000     0.791620000000     0.0352757  
H150     H      0.171310000000     0.148840000000     0.619490000000     0.0364705  
H151     H      0.086880000000     0.097250000000     0.637580000000     0.0412883  
H152     H      0.132050000000     0.118530000000     0.605130000000     0.0382897  
H153     H      0.161600000000     0.177920000000     0.659490000000     0.0512102  
H154     H      0.081680000000     0.075270000000     0.781780000000     0.0996321  
H155     H      0.147960000000     0.153780000000     0.500960000000     0.0975441  
H156     H      0.038090000000     0.081810000000     0.898900000000     0.0351332  
H157     H      0.052920000000     0.050920000000     0.920330000000     0.0476391  
H158     H      0.123200000000     0.131920000000     0.884340000000     0.0407569  
H159     H      0.074660000000     0.112550000000     0.872680000000     0.0365824  
H160     H      0.177560000000     0.109400000000     0.999430000000     0.037228   
H161     H      0.092940000000     0.057980000000     0.511920000000     0.048261   
H162     H      0.141160000000     0.077780000000     0.524650000000     0.0371731  
H163     H      0.177720000000     0.113740000000     0.921750000000     0.0510953  
H164     H      0.026490000000     0.093010000000     0.999880000000     0.09972    
H165     H      0.106680000000     0.410370000000     0.780090000000     0.098227   
H166     H      0.189400000000     0.303220000000     0.664090000000     0.0472527  
H167     H      0.204750000000     0.333780000000     0.641820000000     0.0329227  
H168     H      0.112940000000     0.331760000000     0.798780000000     0.0358149  
H169     H      0.158180000000     0.310040000000     0.768830000000     0.044594   
H170     H      0.070390000000     0.369360000000     0.714590000000     0.0501346  
H171     H      0.168620000000     0.366830000000     0.630820000000     0.0372305  
H172     H      0.123070000000     0.388240000000     0.659870000000     0.0446733  
H173     H      0.077980000000     0.366610000000     0.790740000000     0.0325334  
H174     H      0.224270000000     0.341440000000     0.740250000000     0.10023    
H175     H      0.302510000000     0.110060000000     0.765890000000     0.101483   
H176     H      0.462310000000     0.097640000000     0.768250000000     0.0477105  
H177     H      0.451490000000     0.102210000000     0.842030000000     0.0331568  
H178     H      0.363530000000     0.085030000000     0.681940000000     0.0404117  
H179     H      0.410670000000     0.069820000000     0.716550000000     0.04486    
H180     H      0.337760000000     0.150240000000     0.696440000000     0.0488398  
H181     H      0.414580000000     0.135440000000     0.836000000000     0.0356144  
H182     H      0.367690000000     0.151400000000     0.798680000000     0.0421084  
H183     H      0.327450000000     0.117820000000     0.674650000000     0.0353152  
H184     H      0.435410000000     0.057080000000     0.850080000000     0.101213   
H185     H      0.319960000000     0.321040000000     0.514430000000     0.101341   
H186     H      0.458010000000     0.356570000000     0.599320000000     0.0459776  
H187     H      0.461000000000     0.351940000000     0.522090000000     0.0349353  
H188     H      0.355740000000     0.335900000000     0.635770000000     0.0388627  
H189     H      0.399520000000     0.363490000000     0.630460000000     0.0440408  
H190     H      0.348540000000     0.271750000000     0.564370000000     0.0460673  
H191     H      0.432830000000     0.314860000000     0.991490000000     0.0360277  
H192     H      0.389100000000     0.287210000000     0.997060000000     0.0406845  
H193     H      0.330660000000     0.295180000000     0.611300000000     0.0313403  
H194     H      0.420080000000     0.389350000000     0.518570000000     0.0993866  
H195     H      0.274320000000     0.109290000000     0.999740000000     0.101298   
H196     H      0.429440000000     0.099130000000     0.510610000000     0.0376618  
H197     H      0.426680000000     0.092440000000     0.587290000000     0.0481509  
H198     H      0.347500000000     0.155100000000     0.536490000000     0.0537439  
H199     H      0.397250000000     0.138060000000     0.525980000000     0.0375429  
H200     H      0.286890000000     0.115480000000     0.600760000000     0.0341531  
H201     H      0.366490000000     0.060120000000     0.569710000000     0.0392662  
H202     H      0.317020000000     0.077060000000     0.578150000000     0.0383322  
H203     H      0.299660000000     0.148150000000     0.587120000000     0.0449845  
H204     H      0.405760000000     0.052900000000     0.995940000000     0.10095    
H205     H      0.069440000000     0.381270000000     0.516020000000     0.0999617  
H206     H      0.209610000000     0.349810000000     0.922050000000     0.049381   
H207     H      0.212710000000     0.355550000000     0.998910000000     0.0364757  
H208     H      0.108890000000     0.369910000000     0.879290000000     0.0368878  
H209     H      0.154820000000     0.345240000000     0.882920000000     0.0428821  
H210     H      0.095190000000     0.429360000000     0.955050000000     0.0495133  
H211     H      0.179640000000     0.387690000000     0.537740000000     0.0358302  
H212     H      0.133630000000     0.412310000000     0.534240000000     0.0419357  
H213     H      0.077230000000     0.403840000000     0.914280000000     0.0343763  
H214     H      0.172800000000     0.317340000000     0.505520000000     0.0990564  
H215     H      0.344450000000     0.321260000000     0.791210000000     0.100745   
H216     H      0.484140000000     0.356210000000     0.838570000000     0.0316353  
H217     H      0.489390000000     0.359930000000     0.762340000000     0.0463024  
H218     H      0.390210000000     0.316390000000     0.859100000000     0.0438732  
H219     H      0.431750000000     0.345760000000     0.875840000000     0.0374287  
H220     H      0.370230000000     0.289360000000     0.709410000000     0.034635   
H221     H      0.457750000000     0.336650000000     0.696590000000     0.040941   
H222     H      0.416620000000     0.306870000000     0.680130000000     0.0403624  
H223     H      0.380790000000     0.272290000000     0.774590000000     0.0425519  
H224     H      0.448640000000     0.393130000000     0.838480000000     0.0971802  
N17      N      0.185820000000     0.148850000000     0.706490000000    -0.212233   
N18      N      0.064420000000     0.078280000000     0.752790000000    -0.213382   
N19      N      0.163500000000     0.146860000000     0.971360000000    -0.213364   
N20      N      0.033790000000     0.074190000000     0.988380000000    -0.212724   
N21      N      0.089620000000     0.403280000000     0.754300000000    -0.213171   
N22      N      0.215570000000     0.323290000000     0.727590000000    -0.213675   
N23      N      0.310690000000     0.128680000000     0.755370000000    -0.212826   
N24      N      0.445500000000     0.063590000000     0.811900000000    -0.212888   
N25      N      0.322580000000     0.300840000000     0.521960000000    -0.213333   
N26      N      0.437630000000     0.385850000000     0.546590000000    -0.214115   
N27      N      0.281970000000     0.127560000000     0.514220000000    -0.212975   
N28      N      0.418550000000     0.059920000000     0.530310000000    -0.213391   
N29      N      0.071440000000     0.401200000000     0.505160000000    -0.213507   
N30      N      0.190150000000     0.320800000000     0.976950000000    -0.213132   
N31      N      0.347540000000     0.301020000000     0.785210000000    -0.214307   
N32      N      0.462390000000     0.389030000000     0.803300000000    -0.212567   
O65      O      0.461130000000     0.432410000000     0.781820000000    -0.385265   
O66      O      0.487490000000     0.404530000000     0.724890000000    -0.373829   
O67      O      0.433550000000     0.018120000000     0.545210000000    -0.374585   
O68      O      0.454250000000     0.051550000000     0.596520000000    -0.375288   
O69      O      0.441370000000     0.429840000000     0.557780000000    -0.388517   
O70      O      0.475050000000     0.402930000000     0.599580000000    -0.376366   
O71      O      0.454500000000     0.021040000000     0.789300000000    -0.378805   
O72      O      0.468580000000     0.053480000000     0.727100000000    -0.37625    
O73      O      0.414540000000     0.475050000000     0.760880000000    -0.346063   
O74      O      0.474940000000     0.475700000000     0.853080000000    -0.527386   
O75      O      0.401550000000     0.473240000000     0.610510000000    -0.529122   
O76      O      0.437780000000     0.471650000000     0.978530000000    -0.33555    
O77      O      0.462430000000     0.451280000000     0.665350000000    -0.500766   
O78      O      0.454770000000     0.002360000000     0.665120000000    -0.630102   
O79      O      0.060840000000     0.034020000000     0.743600000000    -0.38276    
O80      O      0.028480000000     0.060660000000     0.697070000000    -0.376661   
O81      O      0.057100000000     0.443490000000     0.520430000000    -0.38648    
O82      O      0.039590000000     0.410500000000     0.577540000000    -0.376079   
O83      O      0.037310000000     0.030620000000     0.510600000000    -0.376944   
O84      O      0.013620000000     0.058800000000     0.571320000000    -0.374672   
O85      O      0.075000000000     0.445500000000     0.741110000000    -0.379169   
O86      O      0.048970000000     0.411900000000     0.701330000000    -0.375061   
O87      O      0.102350000000     0.494840000000     0.693980000000    -0.527728   
O88      O      0.061860000000     0.488140000000     0.822440000000    -0.350281   
O89      O      0.087630000000     0.495310000000     0.533440000000    -0.348397   
O90      O      0.027250000000     0.481790000000     0.946070000000    -0.531148   
O91      O      0.041080000000     0.012270000000     0.633050000000    -0.630965   
O92      O      0.048230000000     0.461450000000     0.633640000000    -0.497992   
O93      O      0.006020000000     0.007950000000     0.735100000000    -0.497484   
O94      O      0.497520000000     0.455500000000     0.562840000000    -0.632066   
O95      O      0.013230000000     0.457820000000     0.735510000000    -0.630969   
O96      O      0.490290000000     0.005750000000     0.563220000000    -0.495688   
O97      O      0.308350000000     0.258950000000     0.500860000000    -0.38371    
O98      O      0.290760000000     0.293630000000     0.948820000000    -0.376901   
O99      O      0.308990000000     0.173080000000     0.768560000000    -0.376293   
O100     O      0.275670000000     0.146420000000     0.811980000000    -0.375432   
O101     O      0.328770000000     0.259710000000     0.788530000000    -0.386284   
O102     O      0.303530000000     0.294130000000     0.827050000000    -0.373916   
O103     O      0.286450000000     0.171690000000     0.998830000000    -0.379833   
O104     O      0.261550000000     0.145920000000     0.934920000000    -0.375009   
O105     O      0.337590000000     0.206940000000     0.981210000000    -0.351377   
O106     O      0.278070000000     0.219660000000     0.570750000000    -0.5301     
O107     O      0.351920000000     0.208280000000     0.811650000000    -0.521961   
O108     O      0.308390000000     0.222450000000     0.692580000000    -0.353113   
O109     O      0.298940000000     0.243310000000     0.885000000000    -0.498834   
O110     O      0.290070000000     0.193160000000     0.880250000000    -0.635438   
O111     O      0.179310000000     0.188820000000     0.961500000000    -0.384982   
O112     O      0.202340000000     0.155680000000     0.913290000000    -0.375216   
O113     O      0.212730000000     0.278980000000     0.741890000000    -0.384935   
O114     O      0.240890000000     0.304430000000     0.800820000000    -0.377377   
O115     O      0.197640000000     0.191070000000     0.730520000000    -0.377742   
O116     O      0.214930000000     0.156630000000     0.783680000000    -0.376225   
O117     O      0.193290000000     0.276820000000     0.964640000000    -0.380925   
O118     O      0.227330000000     0.303570000000     0.923500000000    -0.372373   
O119     O      0.151500000000     0.237490000000     0.916080000000    -0.526412   
O120     O      0.193300000000     0.231770000000     0.542810000000    -0.349518   
O121     O      0.165450000000     0.240130000000     0.752200000000    -0.34508    
O122     O      0.227600000000     0.233460000000     0.665740000000    -0.528398   
O123     O      0.204340000000     0.206710000000     0.850450000000    -0.634771   
O124     O      0.213770000000     0.256990000000     0.855810000000    -0.49976    
O125     O      0.239650000000     0.199390000000     0.951590000000    -0.50046    
O126     O      0.264140000000     0.250830000000     0.783580000000    -0.630781   
O127     O      0.248830000000     0.249520000000     0.956970000000    -0.6305     
O128     O      0.254720000000     0.200650000000     0.778380000000    -0.497224   
Zr13     Zr     0.467150000000     0.477920000000     0.749570000000     1.3815     
Zr14     Zr     0.451730000000     0.475820000000     0.580270000000     1.37793    
Zr15     Zr     0.051890000000     0.487840000000     0.718430000000     1.37643    
Zr16     Zr     0.036270000000     0.485740000000     0.548880000000     1.38159    
Zr17     Zr     0.008880000000     0.431820000000     0.649530000000     1.37496    
Zr18     Zr     0.494460000000     0.031660000000     0.648890000000     1.37764    
Zr19     Zr     0.286410000000     0.217770000000     0.967460000000     1.37936    
Zr20     Zr     0.301280000000     0.218890000000     0.797250000000     1.37702    
Zr21     Zr     0.202280000000     0.231000000000     0.938460000000     1.37825    
Zr22     Zr     0.217170000000     0.232490000000     0.768300000000     1.37795    
Zr23     Zr     0.260970000000     0.274700000000     0.872720000000     1.37571    
Zr24     Zr     0.242770000000     0.175710000000     0.862530000000     1.38257    
C161     C      0.470590000000     0.909310000000     0.268350000000     0.402218   
C162     C      0.436150000000     0.542630000000     0.058550000000     0.403582   
C163     C      0.451990000000     0.906930000000     0.068890000000     0.403732   
C164     C      0.456650000000     0.545430000000     0.274570000000     0.406046   
C165     C      0.050610000000     0.556910000000     0.230370000000     0.402938   
C166     C      0.055430000000     0.919090000000     0.035380000000     0.403539   
C167     C      0.028140000000     0.553740000000     0.024790000000     0.405329   
C168     C      0.070460000000     0.920830000000     0.231260000000     0.40279    
C169     C      0.306620000000     0.783780000000     0.489470000000     0.403463   
C170     C      0.298020000000     0.650250000000     0.279450000000     0.405342   
C171     C      0.325760000000     0.784330000000     0.300650000000     0.404674   
C172     C      0.276580000000     0.649230000000     0.481430000000     0.408999   
C173     C      0.182460000000     0.664390000000     0.447730000000     0.404094   
C174     C      0.223280000000     0.801380000000     0.257860000000     0.402997   
C175     C      0.199990000000     0.666240000000     0.241390000000     0.403151   
C176     C      0.204270000000     0.799660000000     0.454210000000     0.403864   
C177     C      0.096180000000     0.639950000000     0.250630000000    -0.0453519  
C178     C      0.056790000000     0.605600000000     0.238420000000    -0.0216308  
C179     C      0.135130000000     0.644500000000     0.179680000000     0.0190707  
C180     C      0.083420000000     0.619940000000     0.217070000000     0.0162176  
C181     C      0.164040000000     0.656180000000     0.162700000000    -0.0244882  
C182     C      0.096390000000     0.612670000000     0.164060000000    -0.0390353  
C183     C      0.122090000000     0.624820000000     0.145530000000    -0.0463808  
C184     C      0.121750000000     0.652200000000     0.231950000000    -0.0391854  
C185     C      0.089030000000     0.604840000000     0.405900000000    -0.0473139  
C186     C      0.050420000000     0.571780000000     0.434170000000    -0.0216743  
C187     C      0.135630000000     0.606520000000     0.455860000000     0.0155574  
C188     C      0.080100000000     0.583910000000     0.441610000000     0.0204854  
C189     C      0.165540000000     0.618300000000     0.462310000000    -0.0225719  
C190     C      0.099270000000     0.574230000000     0.484190000000    -0.0394006  
C191     C      0.126760000000     0.585530000000     0.491450000000    -0.0449292  
C192     C      0.116640000000     0.615940000000     0.412710000000    -0.0389146  
C193     C      0.150830000000     0.827260000000     0.245210000000    -0.0386917  
C194     C      0.194650000000     0.823430000000     0.179380000000    -0.0224839  
C195     C      0.114890000000     0.861940000000     0.232280000000     0.0167122  
C196     C      0.166950000000     0.836960000000     0.197910000000     0.0198284  
C197     C      0.086390000000     0.874590000000     0.248980000000    -0.022378   
C198     C      0.156680000000     0.859110000000     0.167630000000    -0.0459851  
C199     C      0.130780000000     0.871410000000     0.184420000000    -0.0390185  
C200     C      0.125060000000     0.839680000000     0.262340000000    -0.0463709  
C201     C      0.401390000000     0.587370000000     0.235740000000    -0.0357098  
C202     C      0.445540000000     0.592030000000     0.300860000000    -0.019942   
C203     C      0.362100000000     0.619380000000     0.237610000000     0.0215792  
C204     C      0.416030000000     0.601100000000     0.280040000000     0.0182012  
C205     C      0.334180000000     0.629830000000     0.212400000000    -0.0227897  
C206     C      0.403530000000     0.624250000000     0.302510000000    -0.0456935  
C207     C      0.376780000000     0.633340000000     0.281360000000    -0.0413106  
C208     C      0.374500000000     0.596200000000     0.215460000000    -0.0470625  
C209     C      0.397380000000     0.846880000000     0.101140000000    -0.0408687  
C210     C      0.446110000000     0.858450000000     0.057430000000    -0.0204741  
C211     C      0.369340000000     0.809380000000     0.067160000000     0.0155647  
C212     C      0.419400000000     0.841250000000     0.060540000000     0.0137259  
C213     C      0.342190000000     0.792780000000     0.069090000000    -0.0219212  
C214     C      0.416180000000     0.819540000000     0.023270000000    -0.0455876  
C215     C      0.391320000000     0.803740000000     0.026520000000    -0.041603   
C216     C      0.372500000000     0.831130000000     0.104300000000    -0.0463697  
C217     C      0.379810000000     0.624530000000     0.036560000000    -0.0412784  
C218     C      0.416900000000     0.588100000000     0.044080000000    -0.0206804  
C219     C      0.328610000000     0.617300000000     0.057830000000     0.0214292  
C220     C      0.385720000000     0.597680000000     0.045440000000     0.0129282  
C221     C      0.298520000000     0.627950000000     0.068520000000    -0.0214488  
C222     C      0.362670000000     0.580760000000     0.060640000000    -0.0386685  
C223     C      0.334340000000     0.590430000000     0.065890000000    -0.0492026  
C224     C      0.351480000000     0.634270000000     0.042600000000    -0.0461808  
C225     C      0.150420000000     0.859970000000     0.415860000000    -0.040314   
C226     C      0.197900000000     0.848200000000     0.464260000000    -0.0213938  
C227     C      0.117810000000     0.892860000000     0.456630000000     0.0176369  
C228     C      0.170610000000     0.864640000000     0.460590000000     0.0157576  
C229     C      0.089630000000     0.908050000000     0.454790000000    -0.023823   
C230     C      0.164340000000     0.883720000000     0.002980000000    -0.0448475  
C231     C      0.138140000000     0.897730000000     0.001000000000    -0.0406338  
C232     C      0.124220000000     0.873960000000     0.413910000000    -0.0455636  
C233     C      0.428380000000     0.837570000000     0.332820000000    -0.0435648  
C234     C      0.472930000000     0.861890000000     0.297580000000    -0.0207973  
C235     C      0.399580000000     0.810260000000     0.267600000000     0.0147544  
C236     C      0.447690000000     0.843550000000     0.287300000000     0.0183327  
C237     C      0.374360000000     0.791820000000     0.256790000000    -0.0206625  
C238     C      0.442980000000     0.832510000000     0.232140000000    -0.0413956  
C239     C      0.419350000000     0.815740000000     0.222620000000    -0.0455     
C240     C      0.404620000000     0.820930000000     0.323160000000    -0.0417218  
H225     H      0.436820000000     0.511920000000     0.171180000000     0.196169   
H226     H      0.496290000000     0.943830000000     0.029730000000     0.188413   
H227     H      0.055770000000     0.525540000000     0.126400000000     0.194473   
H228     H      0.017830000000     0.947040000000     0.268900000000     0.193463   
H229     H      0.452100000000     0.959170000000     0.461900000000     0.131383   
H230     H      0.018430000000     0.996280000000     0.425300000000     0.198569   
H231     H      0.097950000000     0.983960000000     0.061770000000     0.138267   
H232     H      0.107610000000     0.508260000000     0.166110000000     0.190645   
H233     H      0.050170000000     0.502990000000     0.337740000000     0.142583   
H234     H      0.484670000000     0.960610000000     0.369780000000     0.188519   
H235     H      0.408810000000     0.959680000000     0.236970000000     0.141533   
H236     H      0.390120000000     0.989130000000     0.114450000000     0.194843   
H237     H      0.117340000000     0.984420000000     0.212440000000     0.20439    
H238     H      0.468390000000     0.989850000000     0.377980000000     0.207711   
H239     H      0.392940000000     0.956330000000     0.119220000000     0.199538   
H240     H      0.032560000000     0.965890000000     0.425510000000     0.198942   
H241     H      0.304330000000     0.679350000000     0.385150000000     0.197858   
H242     H      0.269280000000     0.762290000000     0.251660000000     0.188808   
H243     H      0.185960000000     0.697980000000     0.343750000000     0.194764   
H244     H      0.247990000000     0.760500000000     0.491270000000     0.19282    
H245     H      0.308250000000     0.741590000000     0.184350000000     0.132151   
H246     H      0.230510000000     0.717100000000     0.145120000000     0.200827   
H247     H      0.159920000000     0.753290000000     0.282030000000     0.137151   
H248     H      0.143080000000     0.729260000000     0.382100000000     0.188506   
H249     H      0.199960000000     0.714320000000     0.056710000000     0.141979   
H250     H      0.275900000000     0.736550000000     0.089660000000     0.194905   
H251     H      0.348100000000     0.719030000000     0.454750000000     0.136287   
H252     H      0.358270000000     0.700560000000     0.347930000000     0.187163   
H253     H      0.139480000000     0.748110000000     0.441400000000     0.203357   
H254     H      0.277220000000     0.703640000000     0.093350000000     0.209246   
H255     H      0.365800000000     0.711320000000     0.280760000000     0.200422   
H256     H      0.228790000000     0.750040000000     0.145240000000     0.198516   
H257     H      0.189160000000     0.628710000000     0.213490000000     0.101282   
H258     H      0.047620000000     0.615210000000     0.277820000000     0.0330202  
H259     H      0.039760000000     0.606760000000     0.204150000000     0.0487101  
H260     H      0.131510000000     0.667300000000     0.258940000000     0.0405413  
H261     H      0.086570000000     0.645890000000     0.291620000000     0.035273   
H262     H      0.171310000000     0.648830000000     0.119490000000     0.0364789  
H263     H      0.086870000000     0.597250000000     0.137580000000     0.0412189  
H264     H      0.132050000000     0.618520000000     0.105140000000     0.0382878  
H265     H      0.161600000000     0.677910000000     0.159490000000     0.0512644  
H266     H      0.081680000000     0.575270000000     0.281770000000     0.0994304  
H267     H      0.147960000000     0.653780000000     0.000970000000     0.0975492  
H268     H      0.038090000000     0.581810000000     0.398910000000     0.0350666  
H269     H      0.052920000000     0.550920000000     0.420340000000     0.0472736  
H270     H      0.123200000000     0.631920000000     0.384340000000     0.0407721  
H271     H      0.074660000000     0.612550000000     0.372680000000     0.0365805  
H272     H      0.177560000000     0.609400000000     0.499430000000     0.0371325  
H273     H      0.092940000000     0.557980000000     0.011920000000     0.0479653  
H274     H      0.141160000000     0.577780000000     0.024650000000     0.0370201  
H275     H      0.177720000000     0.613740000000     0.421750000000     0.0509683  
H276     H      0.026490000000     0.593010000000     0.499880000000     0.0998355  
H277     H      0.106690000000     0.910370000000     0.280080000000     0.0981101  
H278     H      0.189400000000     0.803220000000     0.164090000000     0.0472823  
H279     H      0.204750000000     0.833780000000     0.141830000000     0.0329238  
H280     H      0.112940000000     0.831760000000     0.298780000000     0.035854   
H281     H      0.158180000000     0.810040000000     0.268830000000     0.0446015  
H282     H      0.070390000000     0.869350000000     0.214590000000     0.0501482  
H283     H      0.168620000000     0.866830000000     0.130810000000     0.037171   
H284     H      0.123070000000     0.888240000000     0.159870000000     0.044644   
H285     H      0.077980000000     0.866610000000     0.290740000000     0.0325628  
H286     H      0.224270000000     0.841440000000     0.240250000000     0.100166   
H287     H      0.302510000000     0.610060000000     0.265890000000     0.101316   
H288     H      0.462310000000     0.597640000000     0.268250000000     0.0476712  
H289     H      0.451490000000     0.602210000000     0.342030000000     0.0331014  
H290     H      0.363530000000     0.585030000000     0.181940000000     0.0402978  
H291     H      0.410670000000     0.569810000000     0.216550000000     0.0445984  
H292     H      0.337760000000     0.650240000000     0.196450000000     0.0489053  
H293     H      0.414580000000     0.635440000000     0.336000000000     0.0356266  
H294     H      0.367690000000     0.651390000000     0.298680000000     0.042173   
H295     H      0.327450000000     0.617820000000     0.174650000000     0.0352968  
H296     H      0.435410000000     0.557070000000     0.350080000000     0.100927   
H297     H      0.319960000000     0.821030000000     0.014430000000     0.101442   
H298     H      0.458010000000     0.856570000000     0.099320000000     0.0460501  
H299     H      0.460990000000     0.851940000000     0.022090000000     0.0350356  
H300     H      0.355740000000     0.835890000000     0.135770000000     0.0388113  
H301     H      0.399520000000     0.863480000000     0.130460000000     0.0440596  
H302     H      0.348540000000     0.771750000000     0.064370000000     0.0460646  
H303     H      0.432830000000     0.814860000000     0.491490000000     0.0361564  
H304     H      0.389100000000     0.787210000000     0.497060000000     0.0407348  
H305     H      0.330660000000     0.795190000000     0.111310000000     0.0312999  
H306     H      0.420080000000     0.889350000000     0.018570000000     0.0993594  
H307     H      0.274320000000     0.609290000000     0.499740000000     0.101226   
H308     H      0.429440000000     0.599130000000     0.010610000000     0.0376285  
H309     H      0.426680000000     0.592440000000     0.087290000000     0.0481248  
H310     H      0.347500000000     0.655100000000     0.036490000000     0.0538139  
H311     H      0.397250000000     0.638070000000     0.025980000000     0.0375427  
H312     H      0.286890000000     0.615470000000     0.100760000000     0.0340629  
H313     H      0.366490000000     0.560120000000     0.069710000000     0.0389386  
H314     H      0.317020000000     0.577070000000     0.078150000000     0.0381206  
H315     H      0.299670000000     0.648150000000     0.087120000000     0.0449991  
H316     H      0.405760000000     0.552900000000     0.495940000000     0.100705   
H317     H      0.069440000000     0.881270000000     0.016030000000     0.100002   
H318     H      0.209610000000     0.849810000000     0.422050000000     0.0493445  
H319     H      0.212710000000     0.855550000000     0.498920000000     0.0364476  
H320     H      0.108900000000     0.869910000000     0.379290000000     0.0369238  
H321     H      0.154820000000     0.845240000000     0.382920000000     0.0428808  
H322     H      0.095190000000     0.929360000000     0.455050000000     0.0494529  
H323     H      0.179640000000     0.887690000000     0.037740000000     0.035734   
H324     H      0.133640000000     0.912310000000     0.034240000000     0.0417894  
H325     H      0.077230000000     0.903840000000     0.414280000000     0.0343996  
H326     H      0.172800000000     0.817340000000     0.005510000000     0.0991534  
H327     H      0.344450000000     0.821260000000     0.291200000000     0.100726   
H328     H      0.484140000000     0.856200000000     0.338570000000     0.0317104  
H329     H      0.489390000000     0.859930000000     0.262340000000     0.0463717  
H330     H      0.390210000000     0.816390000000     0.359110000000     0.043872   
H331     H      0.431750000000     0.845760000000     0.375840000000     0.0374771  
H332     H      0.370230000000     0.789360000000     0.209410000000     0.0346474  
H333     H      0.457750000000     0.836650000000     0.196590000000     0.0409791  
H334     H      0.416620000000     0.806870000000     0.180130000000     0.0403786  
H335     H      0.380790000000     0.772290000000     0.274590000000     0.0425781  
H336     H      0.448640000000     0.893130000000     0.338480000000     0.0971679  
N33      N      0.185820000000     0.648850000000     0.206500000000    -0.212283   
N34      N      0.064420000000     0.578290000000     0.252780000000    -0.213354   
N35      N      0.163500000000     0.646860000000     0.471360000000    -0.213347   
N36      N      0.033790000000     0.574200000000     0.488380000000    -0.212787   
N37      N      0.089620000000     0.903280000000     0.254300000000    -0.213101   
N38      N      0.215570000000     0.823290000000     0.227590000000    -0.213652   
N39      N      0.310690000000     0.628680000000     0.255370000000    -0.212724   
N40      N      0.445500000000     0.563590000000     0.311900000000    -0.213066   
N41      N      0.322580000000     0.800840000000     0.021950000000    -0.21352    
N42      N      0.437630000000     0.885850000000     0.046590000000    -0.214089   
N43      N      0.281970000000     0.627560000000     0.014220000000    -0.212872   
N44      N      0.418550000000     0.559920000000     0.030310000000    -0.2134     
N45      N      0.071440000000     0.901200000000     0.005160000000    -0.213515   
N46      N      0.190150000000     0.820800000000     0.476950000000    -0.212992   
N47      N      0.347540000000     0.801020000000     0.285210000000    -0.214308   
N48      N      0.462390000000     0.889030000000     0.303300000000    -0.212515   
O129     O      0.461130000000     0.932410000000     0.281820000000    -0.384994   
O130     O      0.487490000000     0.904530000000     0.224890000000    -0.373695   
O131     O      0.433550000000     0.518120000000     0.045210000000    -0.376199   
O132     O      0.454250000000     0.551550000000     0.096520000000    -0.375438   
O133     O      0.441370000000     0.929840000000     0.057770000000    -0.388279   
O134     O      0.475040000000     0.902930000000     0.099580000000    -0.376376   
O135     O      0.454500000000     0.521040000000     0.289300000000    -0.380134   
O136     O      0.468580000000     0.553480000000     0.227100000000    -0.376354   
O137     O      0.414540000000     0.975050000000     0.260880000000    -0.346627   
O138     O      0.474940000000     0.975710000000     0.353080000000    -0.527321   
O139     O      0.401550000000     0.973240000000     0.110510000000    -0.529094   
O140     O      0.437770000000     0.971650000000     0.478530000000    -0.335858   
O141     O      0.462430000000     0.951280000000     0.165340000000    -0.500529   
O142     O      0.454770000000     0.502360000000     0.165120000000    -0.632049   
O143     O      0.060840000000     0.534020000000     0.243600000000    -0.383887   
O144     O      0.028480000000     0.560670000000     0.197070000000    -0.376625   
O145     O      0.057090000000     0.943490000000     0.020430000000    -0.386096   
O146     O      0.039590000000     0.910500000000     0.077540000000    -0.376033   
O147     O      0.037320000000     0.530620000000     0.010600000000    -0.378204   
O148     O      0.013620000000     0.558800000000     0.071320000000    -0.374661   
O149     O      0.075000000000     0.945510000000     0.241110000000    -0.378606   
O150     O      0.048970000000     0.911900000000     0.201330000000    -0.374928   
O151     O      0.102350000000     0.994840000000     0.193980000000    -0.530615   
O152     O      0.061860000000     0.988140000000     0.322440000000    -0.352474   
O153     O      0.087630000000     0.995310000000     0.033440000000    -0.349224   
O154     O      0.027250000000     0.981790000000     0.446060000000    -0.531113   
O155     O      0.041080000000     0.512270000000     0.133040000000    -0.632854   
O156     O      0.048230000000     0.961450000000     0.133640000000    -0.49778    
O157     O      0.006020000000     0.507950000000     0.235100000000    -0.499376   
O158     O      0.497520000000     0.955500000000     0.062840000000    -0.6319     
O159     O      0.013230000000     0.957820000000     0.235510000000    -0.6307     
O160     O      0.490290000000     0.505750000000     0.063230000000    -0.497738   
O161     O      0.308350000000     0.758960000000     0.000860000000    -0.383558   
O162     O      0.290760000000     0.793630000000     0.448820000000    -0.377067   
O163     O      0.309000000000     0.673080000000     0.268560000000    -0.376342   
O164     O      0.275670000000     0.646420000000     0.311980000000    -0.37548    
O165     O      0.328770000000     0.759710000000     0.288530000000    -0.386281   
O166     O      0.303530000000     0.794130000000     0.327050000000    -0.373925   
O167     O      0.286450000000     0.671690000000     0.498830000000    -0.379717   
O168     O      0.261550000000     0.645920000000     0.434930000000    -0.375062   
O169     O      0.337590000000     0.706950000000     0.481220000000    -0.351411   
O170     O      0.278070000000     0.719660000000     0.070750000000    -0.530064   
O171     O      0.351920000000     0.708270000000     0.311650000000    -0.521903   
O172     O      0.308390000000     0.722450000000     0.192580000000    -0.352905   
O173     O      0.298940000000     0.743310000000     0.385000000000    -0.498832   
O174     O      0.290070000000     0.693160000000     0.380250000000    -0.635451   
O175     O      0.179310000000     0.688820000000     0.461500000000    -0.384934   
O176     O      0.202340000000     0.655680000000     0.413290000000    -0.37524    
O177     O      0.212730000000     0.778980000000     0.241890000000    -0.384925   
O178     O      0.240890000000     0.804430000000     0.300820000000    -0.377451   
O179     O      0.197640000000     0.691070000000     0.230530000000    -0.377779   
O180     O      0.214930000000     0.656640000000     0.283690000000    -0.376369   
O181     O      0.193290000000     0.776820000000     0.464640000000    -0.381007   
O182     O      0.227330000000     0.803570000000     0.423500000000    -0.372413   
O183     O      0.151500000000     0.737490000000     0.416080000000    -0.526298   
O184     O      0.193300000000     0.731770000000     0.042810000000    -0.349492   
O185     O      0.165450000000     0.740130000000     0.252200000000    -0.345052   
O186     O      0.227600000000     0.733460000000     0.165740000000    -0.528393   
O187     O      0.204340000000     0.706710000000     0.350450000000    -0.634813   
O188     O      0.213770000000     0.756990000000     0.355810000000    -0.499811   
O189     O      0.239650000000     0.699390000000     0.451590000000    -0.500442   
O190     O      0.264140000000     0.750820000000     0.283580000000    -0.630662   
O191     O      0.248830000000     0.749520000000     0.456970000000    -0.630491   
O192     O      0.254720000000     0.700650000000     0.278380000000    -0.497211   
Zr25     Zr     0.467150000000     0.977920000000     0.249570000000     1.37774    
Zr26     Zr     0.451730000000     0.975820000000     0.080270000000     1.37435    
Zr27     Zr     0.051890000000     0.987840000000     0.218430000000     1.37284    
Zr28     Zr     0.036270000000     0.985740000000     0.048880000000     1.37784    
Zr29     Zr     0.008880000000     0.931820000000     0.149520000000     1.37485    
Zr30     Zr     0.494450000000     0.531660000000     0.148890000000     1.37715    
Zr31     Zr     0.286410000000     0.717770000000     0.467460000000     1.37944    
Zr32     Zr     0.301280000000     0.718890000000     0.297250000000     1.37709    
Zr33     Zr     0.202280000000     0.731000000000     0.438450000000     1.37836    
Zr34     Zr     0.217170000000     0.732490000000     0.268300000000     1.37806    
Zr35     Zr     0.260970000000     0.774700000000     0.372720000000     1.3757     
Zr36     Zr     0.242770000000     0.675710000000     0.362530000000     1.38261    
C241     C      0.470590000000     0.909310000000     0.768350000000     0.40223    
C242     C      0.436150000000     0.542630000000     0.558550000000     0.403562   
C243     C      0.451990000000     0.906930000000     0.568890000000     0.40357    
C244     C      0.456660000000     0.545430000000     0.774570000000     0.406064   
C245     C      0.050610000000     0.556910000000     0.730370000000     0.403231   
C246     C      0.055430000000     0.919100000000     0.535380000000     0.403597   
C247     C      0.028130000000     0.553740000000     0.524790000000     0.405382   
C248     C      0.070450000000     0.920840000000     0.731270000000     0.402727   
C249     C      0.306620000000     0.783780000000     0.989480000000     0.403332   
C250     C      0.298020000000     0.650250000000     0.779450000000     0.405354   
C251     C      0.325760000000     0.784330000000     0.800650000000     0.40464    
C252     C      0.276580000000     0.649240000000     0.981420000000     0.408921   
C253     C      0.182460000000     0.664390000000     0.947730000000     0.40397    
C254     C      0.223280000000     0.801370000000     0.757850000000     0.403034   
C255     C      0.199990000000     0.666240000000     0.741390000000     0.40301    
C256     C      0.204270000000     0.799660000000     0.954220000000     0.403754   
C257     C      0.096180000000     0.639950000000     0.750640000000    -0.0454249  
C258     C      0.056790000000     0.605600000000     0.738420000000    -0.021632   
C259     C      0.135130000000     0.644500000000     0.679680000000     0.019014   
C260     C      0.083420000000     0.619940000000     0.717070000000     0.0162508  
C261     C      0.164040000000     0.656190000000     0.662700000000    -0.0244662  
C262     C      0.096390000000     0.612670000000     0.664060000000    -0.0390937  
C263     C      0.122090000000     0.624820000000     0.645530000000    -0.0463264  
C264     C      0.121750000000     0.652200000000     0.731950000000    -0.0390939  
C265     C      0.089030000000     0.604840000000     0.905900000000    -0.0473292  
C266     C      0.050420000000     0.571780000000     0.934170000000    -0.0216675  
C267     C      0.135630000000     0.606520000000     0.955860000000     0.0155121  
C268     C      0.080100000000     0.583910000000     0.941610000000     0.0204991  
C269     C      0.165540000000     0.618300000000     0.962310000000    -0.0224971  
C270     C      0.099270000000     0.574240000000     0.984190000000    -0.0394877  
C271     C      0.126760000000     0.585530000000     0.991450000000    -0.0449847  
C272     C      0.116630000000     0.615940000000     0.912710000000    -0.0388747  
C273     C      0.150830000000     0.827260000000     0.745210000000    -0.0386528  
C274     C      0.194650000000     0.823430000000     0.679380000000    -0.0224955  
C275     C      0.114890000000     0.861940000000     0.732270000000     0.0167421  
C276     C      0.166950000000     0.836970000000     0.697910000000     0.0198208  
C277     C      0.086390000000     0.874590000000     0.748980000000    -0.0224272  
C278     C      0.156680000000     0.859120000000     0.667630000000    -0.0460207  
C279     C      0.130780000000     0.871410000000     0.684420000000    -0.0390122  
C280     C      0.125060000000     0.839690000000     0.762340000000    -0.0463873  
C281     C      0.401400000000     0.587370000000     0.735740000000    -0.0358571  
C282     C      0.445540000000     0.592040000000     0.800860000000    -0.0201319  
C283     C      0.362100000000     0.619380000000     0.737620000000     0.0215318  
C284     C      0.416030000000     0.601100000000     0.780040000000     0.0183368  
C285     C      0.334180000000     0.629820000000     0.712400000000    -0.0227409  
C286     C      0.403530000000     0.624250000000     0.802510000000    -0.0457624  
C287     C      0.376780000000     0.633350000000     0.781360000000    -0.0412793  
C288     C      0.374500000000     0.596200000000     0.715460000000    -0.0469968  
C289     C      0.397390000000     0.846890000000     0.601130000000    -0.0409254  
C290     C      0.446110000000     0.858460000000     0.557430000000    -0.0203537  
C291     C      0.369340000000     0.809380000000     0.567150000000     0.0155424  
C292     C      0.419400000000     0.841250000000     0.560540000000     0.0137308  
C293     C      0.342190000000     0.792780000000     0.569090000000    -0.0218802  
C294     C      0.416180000000     0.819540000000     0.523260000000    -0.0457025  
C295     C      0.391320000000     0.803750000000     0.526520000000    -0.0416059  
C296     C      0.372500000000     0.831130000000     0.604310000000    -0.0463643  
C297     C      0.379810000000     0.624530000000     0.536560000000    -0.0413543  
C298     C      0.416900000000     0.588100000000     0.544070000000    -0.020671   
C299     C      0.328610000000     0.617310000000     0.557830000000     0.0213483  
C300     C      0.385730000000     0.597680000000     0.545440000000     0.0129284  
C301     C      0.298520000000     0.627950000000     0.568520000000    -0.021397   
C302     C      0.362670000000     0.580760000000     0.560630000000    -0.0386992  
C303     C      0.334340000000     0.590430000000     0.565890000000    -0.0491319  
C304     C      0.351480000000     0.634270000000     0.542600000000    -0.046085   
C305     C      0.150420000000     0.859970000000     0.915860000000    -0.0403583  
C306     C      0.197900000000     0.848210000000     0.964270000000    -0.0214959  
C307     C      0.117810000000     0.892860000000     0.956620000000     0.0174692  
C308     C      0.170610000000     0.864640000000     0.960590000000     0.0157329  
C309     C      0.089630000000     0.908040000000     0.954790000000    -0.0237466  
C310     C      0.164340000000     0.883710000000     0.502990000000    -0.0448873  
C311     C      0.138140000000     0.897740000000     0.501000000000    -0.0408013  
C312     C      0.124220000000     0.873960000000     0.913910000000    -0.0454804  
C313     C      0.428380000000     0.837570000000     0.832810000000    -0.0434787  
C314     C      0.472930000000     0.861900000000     0.797580000000    -0.0206712  
C315     C      0.399580000000     0.810250000000     0.767600000000     0.0147701  
C316     C      0.447700000000     0.843560000000     0.787300000000     0.01823    
C317     C      0.374360000000     0.791820000000     0.756790000000    -0.0206824  
C318     C      0.442980000000     0.832510000000     0.732140000000    -0.0413427  
C319     C      0.419350000000     0.815740000000     0.722620000000    -0.0455243  
C320     C      0.404620000000     0.820930000000     0.823160000000    -0.0417784  
H337     H      0.436820000000     0.511920000000     0.671180000000     0.196169   
H338     H      0.496290000000     0.943830000000     0.529730000000     0.188392   
H339     H      0.055770000000     0.525540000000     0.626400000000     0.194452   
H340     H      0.017820000000     0.947040000000     0.768900000000     0.193513   
H341     H      0.452100000000     0.959170000000     0.961900000000     0.131504   
H342     H      0.018430000000     0.996280000000     0.925300000000     0.198479   
H343     H      0.097950000000     0.983960000000     0.561770000000     0.138275   
H344     H      0.107610000000     0.508260000000     0.666110000000     0.190642   
H345     H      0.050170000000     0.502990000000     0.837740000000     0.142577   
H346     H      0.484670000000     0.960610000000     0.869780000000     0.188507   
H347     H      0.408810000000     0.959680000000     0.736980000000     0.141574   
H348     H      0.390120000000     0.989130000000     0.614450000000     0.194902   
H349     H      0.117340000000     0.984420000000     0.712440000000     0.204327   
H350     H      0.468390000000     0.989850000000     0.877980000000     0.207708   
H351     H      0.392940000000     0.956340000000     0.619230000000     0.19976    
H352     H      0.032560000000     0.965890000000     0.925510000000     0.198851   
H353     H      0.304330000000     0.679350000000     0.885150000000     0.197867   
H354     H      0.269280000000     0.762290000000     0.751660000000     0.188982   
H355     H      0.185960000000     0.697980000000     0.843750000000     0.194742   
H356     H      0.247990000000     0.760500000000     0.991270000000     0.192781   
H357     H      0.308250000000     0.741590000000     0.684360000000     0.132154   
H358     H      0.230510000000     0.717100000000     0.645120000000     0.200825   
H359     H      0.159920000000     0.753290000000     0.782030000000     0.137153   
H360     H      0.143080000000     0.729260000000     0.882110000000     0.188608   
H361     H      0.199960000000     0.714320000000     0.556710000000     0.141963   
H362     H      0.275900000000     0.736550000000     0.589660000000     0.195102   
H363     H      0.348110000000     0.719040000000     0.954750000000     0.136168   
H364     H      0.358270000000     0.700560000000     0.847940000000     0.186965   
H365     H      0.139480000000     0.748110000000     0.941400000000     0.203364   
H366     H      0.277220000000     0.703640000000     0.593350000000     0.209058   
H367     H      0.365800000000     0.711330000000     0.780770000000     0.20046    
H368     H      0.228790000000     0.750040000000     0.645240000000     0.198505   
H369     H      0.189160000000     0.628710000000     0.713490000000     0.10127    
H370     H      0.047620000000     0.615210000000     0.777820000000     0.0330161  
H371     H      0.039760000000     0.606770000000     0.704150000000     0.0486789  
H372     H      0.131510000000     0.667310000000     0.758950000000     0.0404936  
H373     H      0.086570000000     0.645890000000     0.791620000000     0.0352944  
H374     H      0.171310000000     0.648840000000     0.619490000000     0.0364703  
H375     H      0.086880000000     0.597250000000     0.637580000000     0.041228   
H376     H      0.132050000000     0.618520000000     0.605130000000     0.0382507  
H377     H      0.161600000000     0.677920000000     0.659490000000     0.0512586  
H378     H      0.081680000000     0.575270000000     0.781780000000     0.0994418  
H379     H      0.147960000000     0.653780000000     0.500960000000     0.0975678  
H380     H      0.038090000000     0.581810000000     0.898900000000     0.0350539  
H381     H      0.052920000000     0.550920000000     0.920330000000     0.0472515  
H382     H      0.123200000000     0.631920000000     0.884340000000     0.0407505  
H383     H      0.074660000000     0.612550000000     0.872680000000     0.0365802  
H384     H      0.177560000000     0.609400000000     0.999430000000     0.0370861  
H385     H      0.092940000000     0.557970000000     0.511920000000     0.047897   
H386     H      0.141160000000     0.577780000000     0.524650000000     0.0369567  
H387     H      0.177720000000     0.613740000000     0.921750000000     0.0509443  
H388     H      0.026490000000     0.593010000000     0.999880000000     0.099814   
H389     H      0.106680000000     0.910370000000     0.780090000000     0.0981258  
H390     H      0.189400000000     0.803220000000     0.664090000000     0.0472781  
H391     H      0.204750000000     0.833780000000     0.641820000000     0.0329082  
H392     H      0.112940000000     0.831760000000     0.798780000000     0.035849   
H393     H      0.158180000000     0.810030000000     0.768830000000     0.0445795  
H394     H      0.070390000000     0.869360000000     0.714590000000     0.0501724  
H395     H      0.168620000000     0.866830000000     0.630820000000     0.0371877  
H396     H      0.123070000000     0.888240000000     0.659870000000     0.0446461  
H397     H      0.077980000000     0.866610000000     0.790740000000     0.0325669  
H398     H      0.224270000000     0.841450000000     0.740250000000     0.100083   
H399     H      0.302510000000     0.610060000000     0.765890000000     0.101308   
H400     H      0.462310000000     0.597640000000     0.768250000000     0.0477204  
H401     H      0.451490000000     0.602210000000     0.842030000000     0.0331442  
H402     H      0.363530000000     0.585030000000     0.681940000000     0.0402806  
H403     H      0.410670000000     0.569820000000     0.716550000000     0.0446728  
H404     H      0.337760000000     0.650240000000     0.696440000000     0.0488684  
H405     H      0.414580000000     0.635440000000     0.836000000000     0.0356362  
H406     H      0.367690000000     0.651400000000     0.798680000000     0.0421466  
H407     H      0.327450000000     0.617820000000     0.674650000000     0.035288   
H408     H      0.435410000000     0.557070000000     0.850080000000     0.100913   
H409     H      0.319960000000     0.821040000000     0.514430000000     0.101315   
H410     H      0.458010000000     0.856570000000     0.599320000000     0.0460063  
H411     H      0.461000000000     0.851940000000     0.522090000000     0.0349676  
H412     H      0.355740000000     0.835900000000     0.635770000000     0.0388088  
H413     H      0.399520000000     0.863480000000     0.630460000000     0.0440786  
H414     H      0.348540000000     0.771740000000     0.564370000000     0.046029   
H415     H      0.432830000000     0.814860000000     0.991490000000     0.0360678  
H416     H      0.389100000000     0.787210000000     0.997060000000     0.0406965  
H417     H      0.330660000000     0.795190000000     0.611300000000     0.0312988  
H418     H      0.420080000000     0.889340000000     0.518570000000     0.0993576  
H419     H      0.274320000000     0.609290000000     0.999740000000     0.10114    
H420     H      0.429440000000     0.599130000000     0.510610000000     0.037605   
H421     H      0.426680000000     0.592440000000     0.587290000000     0.0481169  
H422     H      0.347500000000     0.655110000000     0.536490000000     0.0537554  
H423     H      0.397250000000     0.638060000000     0.525980000000     0.0375556  
H424     H      0.286890000000     0.615470000000     0.600760000000     0.0340446  
H425     H      0.366490000000     0.560120000000     0.569710000000     0.0389363  
H426     H      0.317020000000     0.577060000000     0.578150000000     0.0380794  
H427     H      0.299660000000     0.648150000000     0.587120000000     0.044976   
H428     H      0.405760000000     0.552900000000     0.995940000000     0.100634   
H429     H      0.069440000000     0.881270000000     0.516020000000     0.0999896  
H430     H      0.209610000000     0.849810000000     0.922050000000     0.0493813  
H431     H      0.212710000000     0.855550000000     0.998910000000     0.0364588  
H432     H      0.108890000000     0.869910000000     0.879290000000     0.0368831  
H433     H      0.154820000000     0.845240000000     0.882920000000     0.0428956  
H434     H      0.095190000000     0.929360000000     0.955050000000     0.0493934  
H435     H      0.179640000000     0.887690000000     0.537740000000     0.0357286  
H436     H      0.133630000000     0.912310000000     0.534240000000     0.0418304  
H437     H      0.077230000000     0.903840000000     0.914280000000     0.034363   
H438     H      0.172800000000     0.817350000000     0.505520000000     0.0990824  
H439     H      0.344450000000     0.821260000000     0.791210000000     0.100715   
H440     H      0.484140000000     0.856210000000     0.838570000000     0.0316671  
H441     H      0.489390000000     0.859930000000     0.762340000000     0.0463292  
H442     H      0.390210000000     0.816390000000     0.859100000000     0.0438827  
H443     H      0.431750000000     0.845760000000     0.875840000000     0.0374312  
H444     H      0.370230000000     0.789370000000     0.709410000000     0.034656   
H445     H      0.457750000000     0.836650000000     0.696590000000     0.0409617  
H446     H      0.416620000000     0.806870000000     0.680130000000     0.0403817  
H447     H      0.380790000000     0.772290000000     0.774590000000     0.0425815  
H448     H      0.448640000000     0.893130000000     0.838480000000     0.0971569  
N49      N      0.185820000000     0.648850000000     0.706490000000    -0.212221   
N50      N      0.064420000000     0.578290000000     0.752790000000    -0.213397   
N51      N      0.163500000000     0.646850000000     0.971360000000    -0.213281   
N52      N      0.033790000000     0.574200000000     0.988380000000    -0.212826   
N53      N      0.089620000000     0.903280000000     0.754300000000    -0.213017   
N54      N      0.215570000000     0.823290000000     0.727590000000    -0.21353    
N55      N      0.310690000000     0.628680000000     0.755370000000    -0.212751   
N56      N      0.445500000000     0.563590000000     0.811900000000    -0.213011   
N57      N      0.322580000000     0.800840000000     0.521960000000    -0.21345    
N58      N      0.437630000000     0.885850000000     0.546590000000    -0.214098   
N59      N      0.281970000000     0.627560000000     0.514220000000    -0.213073   
N60      N      0.418550000000     0.559920000000     0.530310000000    -0.213445   
N61      N      0.071440000000     0.901200000000     0.505160000000    -0.213489   
N62      N      0.190150000000     0.820800000000     0.976950000000    -0.213021   
N63      N      0.347540000000     0.801020000000     0.785210000000    -0.214295   
N64      N      0.462390000000     0.889030000000     0.803300000000    -0.21254    
O193     O      0.461130000000     0.932410000000     0.781820000000    -0.385007   
O194     O      0.487490000000     0.904530000000     0.724890000000    -0.373738   
O195     O      0.433550000000     0.518120000000     0.545210000000    -0.376211   
O196     O      0.454250000000     0.551550000000     0.596520000000    -0.375374   
O197     O      0.441370000000     0.929840000000     0.557780000000    -0.38826    
O198     O      0.475050000000     0.902930000000     0.599580000000    -0.376273   
O199     O      0.454500000000     0.521040000000     0.789300000000    -0.380137   
O200     O      0.468580000000     0.553480000000     0.727100000000    -0.376367   
O201     O      0.414540000000     0.975050000000     0.760880000000    -0.34668    
O202     O      0.474940000000     0.975710000000     0.853080000000    -0.527323   
O203     O      0.401550000000     0.973240000000     0.610510000000    -0.52936    
O204     O      0.437780000000     0.971650000000     0.978530000000    -0.33606    
O205     O      0.462430000000     0.951280000000     0.665350000000    -0.500524   
O206     O      0.454770000000     0.502360000000     0.665120000000    -0.631985   
O207     O      0.060840000000     0.534030000000     0.743600000000    -0.383981   
O208     O      0.028480000000     0.560660000000     0.697070000000    -0.376772   
O209     O      0.057090000000     0.943490000000     0.520430000000    -0.38626    
O210     O      0.039590000000     0.910500000000     0.577540000000    -0.375984   
O211     O      0.037310000000     0.530620000000     0.510600000000    -0.378249   
O212     O      0.013620000000     0.558800000000     0.571320000000    -0.37474    
O213     O      0.075000000000     0.945510000000     0.741110000000    -0.378713   
O214     O      0.048960000000     0.911900000000     0.701330000000    -0.374938   
O215     O      0.102350000000     0.994840000000     0.693980000000    -0.530371   
O216     O      0.061860000000     0.988140000000     0.822440000000    -0.352484   
O217     O      0.087630000000     0.995310000000     0.533440000000    -0.349246   
O218     O      0.027250000000     0.981790000000     0.946070000000    -0.531051   
O219     O      0.041080000000     0.512270000000     0.633050000000    -0.632828   
O220     O      0.048230000000     0.961450000000     0.633640000000    -0.497771   
O221     O      0.006020000000     0.507950000000     0.735100000000    -0.499374   
O222     O      0.497520000000     0.955500000000     0.562840000000    -0.631857   
O223     O      0.013230000000     0.957820000000     0.735510000000    -0.630799   
O224     O      0.490290000000     0.505750000000     0.563220000000    -0.497686   
O225     O      0.308350000000     0.758960000000     0.500860000000    -0.38366    
O226     O      0.290760000000     0.793630000000     0.948820000000    -0.377022   
O227     O      0.308990000000     0.673090000000     0.768560000000    -0.37644    
O228     O      0.275670000000     0.646430000000     0.811980000000    -0.375541   
O229     O      0.328770000000     0.759710000000     0.788530000000    -0.386191   
O230     O      0.303530000000     0.794130000000     0.827050000000    -0.37391    
O231     O      0.286450000000     0.671690000000     0.998830000000    -0.37983    
O232     O      0.261550000000     0.645920000000     0.934920000000    -0.375066   
O233     O      0.337590000000     0.706950000000     0.981210000000    -0.351323   
O234     O      0.278070000000     0.719670000000     0.570750000000    -0.530106   
O235     O      0.351920000000     0.708280000000     0.811650000000    -0.521795   
O236     O      0.308390000000     0.722450000000     0.692580000000    -0.35291    
O237     O      0.298940000000     0.743310000000     0.885000000000    -0.49877    
O238     O      0.290070000000     0.693160000000     0.880250000000    -0.635484   
O239     O      0.179310000000     0.688820000000     0.961500000000    -0.384943   
O240     O      0.202340000000     0.655680000000     0.913290000000    -0.375218   
O241     O      0.212730000000     0.778980000000     0.741890000000    -0.385061   
O242     O      0.240890000000     0.804430000000     0.800820000000    -0.377391   
O243     O      0.197640000000     0.691070000000     0.730520000000    -0.37773    
O244     O      0.214930000000     0.656630000000     0.783680000000    -0.376268   
O245     O      0.193290000000     0.776820000000     0.964640000000    -0.381039   
O246     O      0.227330000000     0.803580000000     0.923500000000    -0.372294   
O247     O      0.151500000000     0.737490000000     0.916080000000    -0.52641    
O248     O      0.193300000000     0.731770000000     0.542810000000    -0.349493   
O249     O      0.165450000000     0.740130000000     0.752200000000    -0.345051   
O250     O      0.227600000000     0.733460000000     0.665740000000    -0.528392   
O251     O      0.204340000000     0.706710000000     0.850450000000    -0.634773   
O252     O      0.213770000000     0.756990000000     0.855810000000    -0.49977    
O253     O      0.239650000000     0.699390000000     0.951590000000    -0.500456   
O254     O      0.264140000000     0.750830000000     0.783580000000    -0.630712   
O255     O      0.248830000000     0.749520000000     0.956970000000    -0.630503   
O256     O      0.254720000000     0.700650000000     0.778380000000    -0.497254   
Zr37     Zr     0.467150000000     0.977920000000     0.749570000000     1.37779    
Zr38     Zr     0.451730000000     0.975820000000     0.580270000000     1.37425    
Zr39     Zr     0.051890000000     0.987840000000     0.718430000000     1.37288    
Zr40     Zr     0.036270000000     0.985740000000     0.548880000000     1.37773    
Zr41     Zr     0.008880000000     0.931820000000     0.649530000000     1.37487    
Zr42     Zr     0.494460000000     0.531660000000     0.648890000000     1.37718    
Zr43     Zr     0.286410000000     0.717770000000     0.967460000000     1.37936    
Zr44     Zr     0.301280000000     0.718880000000     0.797250000000     1.37712    
Zr45     Zr     0.202280000000     0.731000000000     0.938460000000     1.3783     
Zr46     Zr     0.217170000000     0.732490000000     0.768300000000     1.378      
Zr47     Zr     0.260970000000     0.774700000000     0.872720000000     1.37569    
Zr48     Zr     0.242770000000     0.675710000000     0.862530000000     1.3826     
C321     C      0.970590000000     0.409310000000     0.268350000000     0.402534   
C322     C      0.936150000000     0.042640000000     0.058550000000     0.403386   
C323     C      0.951990000000     0.406930000000     0.068890000000     0.403634   
C324     C      0.956650000000     0.045430000000     0.274570000000     0.405914   
C325     C      0.550610000000     0.056910000000     0.230370000000     0.402961   
C326     C      0.555430000000     0.419100000000     0.035380000000     0.403687   
C327     C      0.528130000000     0.053740000000     0.024790000000     0.405278   
C328     C      0.570450000000     0.420840000000     0.231260000000     0.403117   
C329     C      0.806620000000     0.283770000000     0.489470000000     0.403247   
C330     C      0.798020000000     0.150240000000     0.279450000000     0.4054     
C331     C      0.825760000000     0.284330000000     0.300650000000     0.40466    
C332     C      0.776580000000     0.149240000000     0.481430000000     0.409014   
C333     C      0.682470000000     0.164390000000     0.447730000000     0.404147   
C334     C      0.723280000000     0.301380000000     0.257860000000     0.402993   
C335     C      0.699990000000     0.166240000000     0.241390000000     0.403011   
C336     C      0.704270000000     0.299670000000     0.454210000000     0.403766   
C337     C      0.596180000000     0.139950000000     0.250630000000    -0.0453892  
C338     C      0.556790000000     0.105600000000     0.238420000000    -0.0217024  
C339     C      0.635130000000     0.144500000000     0.179680000000     0.0190362  
C340     C      0.583420000000     0.119940000000     0.217070000000     0.0162553  
C341     C      0.664040000000     0.156180000000     0.162700000000    -0.0244117  
C342     C      0.596390000000     0.112670000000     0.164060000000    -0.0390316  
C343     C      0.622090000000     0.124820000000     0.145530000000    -0.0463445  
C344     C      0.621750000000     0.152200000000     0.231950000000    -0.039124   
C345     C      0.589030000000     0.104830000000     0.405900000000    -0.047287   
C346     C      0.550420000000     0.071780000000     0.434170000000    -0.0217041  
C347     C      0.635630000000     0.106520000000     0.455860000000     0.0156876  
C348     C      0.580100000000     0.083910000000     0.441610000000     0.0206151  
C349     C      0.665540000000     0.118300000000     0.462310000000    -0.0226267  
C350     C      0.599270000000     0.074230000000     0.484190000000    -0.0393326  
C351     C      0.626770000000     0.085530000000     0.491450000000    -0.0449047  
C352     C      0.616640000000     0.115940000000     0.412710000000    -0.0389225  
C353     C      0.650830000000     0.327260000000     0.245210000000    -0.0387165  
C354     C      0.694650000000     0.323430000000     0.179380000000    -0.0224804  
C355     C      0.614890000000     0.361940000000     0.232280000000     0.0167193  
C356     C      0.666950000000     0.336970000000     0.197910000000     0.0198375  
C357     C      0.586390000000     0.374590000000     0.248980000000    -0.0224119  
C358     C      0.656680000000     0.359120000000     0.167630000000    -0.0459941  
C359     C      0.630780000000     0.371410000000     0.184420000000    -0.0389886  
C360     C      0.625060000000     0.339690000000     0.262340000000    -0.0463644  
C361     C      0.901390000000     0.087360000000     0.235740000000    -0.0358136  
C362     C      0.945540000000     0.092040000000     0.300860000000    -0.0201427  
C363     C      0.862100000000     0.119370000000     0.237610000000     0.0215374  
C364     C      0.916030000000     0.101100000000     0.280040000000     0.0183451  
C365     C      0.834180000000     0.129820000000     0.212400000000    -0.0227069  
C366     C      0.903520000000     0.124240000000     0.302510000000    -0.0457089  
C367     C      0.876780000000     0.133340000000     0.281360000000    -0.0412197  
C368     C      0.874500000000     0.096200000000     0.215460000000    -0.0469245  
C369     C      0.897380000000     0.346880000000     0.101140000000    -0.040756   
C370     C      0.946110000000     0.358460000000     0.057430000000    -0.0203254  
C371     C      0.869330000000     0.309380000000     0.067160000000     0.0156481  
C372     C      0.919400000000     0.341250000000     0.060540000000     0.013616   
C373     C      0.842190000000     0.292780000000     0.069090000000    -0.0220049  
C374     C      0.916180000000     0.319540000000     0.023270000000    -0.0455439  
C375     C      0.891310000000     0.303740000000     0.026520000000    -0.041673   
C376     C      0.872490000000     0.331130000000     0.104300000000    -0.0464652  
C377     C      0.879810000000     0.124530000000     0.036560000000    -0.0414207  
C378     C      0.916900000000     0.088110000000     0.044080000000    -0.020826   
C379     C      0.828610000000     0.117310000000     0.057830000000     0.0213543  
C380     C      0.885720000000     0.097680000000     0.045440000000     0.0131121  
C381     C      0.798520000000     0.127950000000     0.068520000000    -0.0213946  
C382     C      0.862670000000     0.080750000000     0.060640000000    -0.0387855  
C383     C      0.834340000000     0.090430000000     0.065890000000    -0.0489865  
C384     C      0.851480000000     0.134260000000     0.042600000000    -0.0460394  
C385     C      0.650420000000     0.359970000000     0.415860000000    -0.0403044  
C386     C      0.697900000000     0.348200000000     0.464260000000    -0.021415   
C387     C      0.617820000000     0.392860000000     0.456630000000     0.0176784  
C388     C      0.670610000000     0.364630000000     0.460590000000     0.0158028  
C389     C      0.589630000000     0.408040000000     0.454790000000    -0.0237864  
C390     C      0.664340000000     0.383710000000     0.002980000000    -0.0447394  
C391     C      0.638140000000     0.397740000000     0.001000000000    -0.0406923  
C392     C      0.624220000000     0.373960000000     0.413910000000    -0.0455575  
C393     C      0.928380000000     0.337570000000     0.332820000000    -0.0435215  
C394     C      0.972930000000     0.361900000000     0.297580000000    -0.0206893  
C395     C      0.899580000000     0.310260000000     0.267600000000     0.0147764  
C396     C      0.947690000000     0.343550000000     0.287300000000     0.0182499  
C397     C      0.874360000000     0.291820000000     0.256790000000    -0.0207185  
C398     C      0.942980000000     0.332510000000     0.232140000000    -0.0413674  
C399     C      0.919350000000     0.315730000000     0.222620000000    -0.0455706  
C400     C      0.904620000000     0.320940000000     0.323160000000    -0.0417329  
H449     H      0.936820000000     0.011920000000     0.171180000000     0.196462   
H450     H      0.996290000000     0.443830000000     0.029730000000     0.188578   
H451     H      0.555780000000     0.025540000000     0.126400000000     0.194351   
H452     H      0.517820000000     0.447040000000     0.268900000000     0.193454   
H453     H      0.952100000000     0.459170000000     0.461900000000     0.131447   
H454     H      0.518430000000     0.496280000000     0.425300000000     0.199432   
H455     H      0.597950000000     0.483960000000     0.061770000000     0.138477   
H456     H      0.607610000000     0.008260000000     0.166110000000     0.193276   
H457     H      0.550170000000     0.002990000000     0.337740000000     0.145062   
H458     H      0.984660000000     0.460610000000     0.369780000000     0.188878   
H459     H      0.908810000000     0.459680000000     0.236970000000     0.14154    
H460     H      0.890120000000     0.489120000000     0.114450000000     0.195941   
H461     H      0.617340000000     0.484410000000     0.212440000000     0.20401    
H462     H      0.968390000000     0.489850000000     0.377980000000     0.208292   
H463     H      0.892940000000     0.456330000000     0.119220000000     0.199807   
H464     H      0.532560000000     0.465890000000     0.425510000000     0.199047   
H465     H      0.804330000000     0.179350000000     0.385150000000     0.197673   
H466     H      0.769280000000     0.262290000000     0.251660000000     0.18899    
H467     H      0.685950000000     0.197980000000     0.343750000000     0.194516   
H468     H      0.747990000000     0.260500000000     0.491270000000     0.19283    
H469     H      0.808250000000     0.241580000000     0.184350000000     0.132317   
H470     H      0.730510000000     0.217100000000     0.145120000000     0.20084    
H471     H      0.659920000000     0.253290000000     0.282030000000     0.137131   
H472     H      0.643080000000     0.229260000000     0.382100000000     0.188479   
H473     H      0.699960000000     0.214320000000     0.056710000000     0.141983   
H474     H      0.775900000000     0.236550000000     0.089660000000     0.194934   
H475     H      0.848100000000     0.219030000000     0.454750000000     0.136071   
H476     H      0.858270000000     0.200570000000     0.347930000000     0.187153   
H477     H      0.639480000000     0.248110000000     0.441400000000     0.203312   
H478     H      0.777230000000     0.203640000000     0.093350000000     0.20929    
H479     H      0.865800000000     0.211330000000     0.280760000000     0.200404   
H480     H      0.728790000000     0.250040000000     0.145240000000     0.198513   
H481     H      0.689170000000     0.128710000000     0.213490000000     0.101385   
H482     H      0.547620000000     0.115210000000     0.277820000000     0.0330116  
H483     H      0.539760000000     0.106760000000     0.204150000000     0.0486833  
H484     H      0.631510000000     0.167310000000     0.258940000000     0.0405007  
H485     H      0.586570000000     0.145890000000     0.291620000000     0.0352571  
H486     H      0.671310000000     0.148830000000     0.119490000000     0.0364811  
H487     H      0.586870000000     0.097250000000     0.137580000000     0.0412775  
H488     H      0.632050000000     0.118530000000     0.105140000000     0.0383223  
H489     H      0.661600000000     0.177920000000     0.159490000000     0.0512177  
H490     H      0.581690000000     0.075270000000     0.281770000000     0.0995763  
H491     H      0.647960000000     0.153780000000     0.000970000000     0.0975807  
H492     H      0.538090000000     0.081810000000     0.398910000000     0.0351196  
H493     H      0.552920000000     0.050920000000     0.420340000000     0.0476468  
H494     H      0.623200000000     0.131920000000     0.384340000000     0.04079    
H495     H      0.574660000000     0.112550000000     0.372680000000     0.0365665  
H496     H      0.677560000000     0.109400000000     0.499430000000     0.0372581  
H497     H      0.592930000000     0.057980000000     0.011920000000     0.0483139  
H498     H      0.641150000000     0.077790000000     0.024650000000     0.0373032  
H499     H      0.677730000000     0.113740000000     0.421750000000     0.0511062  
H500     H      0.526490000000     0.093010000000     0.499880000000     0.0996902  
H501     H      0.606690000000     0.410370000000     0.280080000000     0.098185   
H502     H      0.689400000000     0.303220000000     0.164090000000     0.0472654  
H503     H      0.704750000000     0.333780000000     0.141830000000     0.0329442  
H504     H      0.612940000000     0.331760000000     0.298780000000     0.0358166  
H505     H      0.658180000000     0.310040000000     0.268830000000     0.0445937  
H506     H      0.570390000000     0.369360000000     0.214590000000     0.0501367  
H507     H      0.668620000000     0.366830000000     0.130810000000     0.0372234  
H508     H      0.623070000000     0.388240000000     0.159870000000     0.0446746  
H509     H      0.577980000000     0.366610000000     0.290740000000     0.032542   
H510     H      0.724270000000     0.341440000000     0.240250000000     0.100229   
H511     H      0.802510000000     0.110060000000     0.265890000000     0.101489   
H512     H      0.962300000000     0.097640000000     0.268250000000     0.0477216  
H513     H      0.951480000000     0.102210000000     0.342030000000     0.0331787  
H514     H      0.863530000000     0.085030000000     0.181940000000     0.0404177  
H515     H      0.910670000000     0.069820000000     0.216550000000     0.044823   
H516     H      0.837760000000     0.150240000000     0.196450000000     0.0488524  
H517     H      0.914580000000     0.135440000000     0.336000000000     0.0356005  
H518     H      0.867690000000     0.151400000000     0.298680000000     0.0421186  
H519     H      0.827460000000     0.117820000000     0.174650000000     0.0353244  
H520     H      0.935410000000     0.057080000000     0.350080000000     0.101232   
H521     H      0.819960000000     0.321040000000     0.014430000000     0.10138    
H522     H      0.958010000000     0.356570000000     0.099320000000     0.045986   
H523     H      0.960990000000     0.351940000000     0.022090000000     0.0349715  
H524     H      0.855740000000     0.335900000000     0.135770000000     0.0388794  
H525     H      0.899520000000     0.363490000000     0.130460000000     0.0440397  
H526     H      0.848540000000     0.271750000000     0.064370000000     0.046053   
H527     H      0.932830000000     0.314860000000     0.491490000000     0.0361116  
H528     H      0.889100000000     0.287210000000     0.497060000000     0.0407709  
H529     H      0.830660000000     0.295180000000     0.111310000000     0.0313131  
H530     H      0.920080000000     0.389350000000     0.018570000000     0.0994024  
H531     H      0.774320000000     0.109290000000     0.499740000000     0.101382   
H532     H      0.929440000000     0.099130000000     0.010610000000     0.0376876  
H533     H      0.926680000000     0.092440000000     0.087290000000     0.0481627  
H534     H      0.847500000000     0.155100000000     0.036490000000     0.0537442  
H535     H      0.897250000000     0.138060000000     0.025980000000     0.0375681  
H536     H      0.786880000000     0.115470000000     0.100760000000     0.0341434  
H537     H      0.866490000000     0.060120000000     0.069710000000     0.0393226  
H538     H      0.817020000000     0.077060000000     0.078150000000     0.038328   
H539     H      0.799660000000     0.148150000000     0.087120000000     0.0449817  
H540     H      0.905770000000     0.052900000000     0.495940000000     0.101064   
H541     H      0.569440000000     0.381270000000     0.016030000000     0.0999637  
H542     H      0.709610000000     0.349810000000     0.422050000000     0.0493991  
H543     H      0.712710000000     0.355550000000     0.498920000000     0.036513   
H544     H      0.608900000000     0.369910000000     0.379290000000     0.0369175  
H545     H      0.654820000000     0.345240000000     0.382920000000     0.0428827  
H546     H      0.595190000000     0.429360000000     0.455050000000     0.0495367  
H547     H      0.679640000000     0.387690000000     0.037740000000     0.035816   
H548     H      0.633630000000     0.412310000000     0.034240000000     0.0419322  
H549     H      0.577230000000     0.403840000000     0.414280000000     0.0343809  
H550     H      0.672800000000     0.317340000000     0.005510000000     0.0991481  
H551     H      0.844450000000     0.321260000000     0.291200000000     0.100753   
H552     H      0.984150000000     0.356210000000     0.338570000000     0.0316537  
H553     H      0.989380000000     0.359930000000     0.262340000000     0.0463231  
H554     H      0.890210000000     0.316390000000     0.359110000000     0.0438709  
H555     H      0.931760000000     0.345760000000     0.375840000000     0.0374625  
H556     H      0.870230000000     0.289360000000     0.209410000000     0.034648   
H557     H      0.957750000000     0.336650000000     0.196590000000     0.0409497  
H558     H      0.916620000000     0.306870000000     0.180130000000     0.0403843  
H559     H      0.880790000000     0.272300000000     0.274590000000     0.0425785  
H560     H      0.948630000000     0.393130000000     0.338480000000     0.0971542  
N65      N      0.685820000000     0.148850000000     0.206500000000    -0.212248   
N66      N      0.564420000000     0.078280000000     0.252780000000    -0.21335    
N67      N      0.663500000000     0.146860000000     0.471360000000    -0.213295   
N68      N      0.533800000000     0.074190000000     0.488380000000    -0.212653   
N69      N      0.589620000000     0.403280000000     0.254300000000    -0.213048   
N70      N      0.715570000000     0.323290000000     0.227590000000    -0.213653   
N71      N      0.810690000000     0.128680000000     0.255370000000    -0.212822   
N72      N      0.945500000000     0.063590000000     0.311900000000    -0.212978   
N73      N      0.822580000000     0.300840000000     0.021950000000    -0.213337   
N74      N      0.937630000000     0.385850000000     0.046590000000    -0.214106   
N75      N      0.781970000000     0.127560000000     0.014220000000    -0.212899   
N76      N      0.918550000000     0.059920000000     0.030310000000    -0.213387   
N77      N      0.571440000000     0.401200000000     0.005160000000    -0.213481   
N78      N      0.690150000000     0.320800000000     0.476950000000    -0.21304    
N79      N      0.847540000000     0.301020000000     0.285210000000    -0.214305   
N80      N      0.962390000000     0.389030000000     0.303300000000    -0.212558   
O257     O      0.961130000000     0.432400000000     0.281820000000    -0.385352   
O258     O      0.987490000000     0.404530000000     0.224890000000    -0.373874   
O259     O      0.933550000000     0.018120000000     0.045210000000    -0.374586   
O260     O      0.954250000000     0.051550000000     0.096520000000    -0.375359   
O261     O      0.941370000000     0.429840000000     0.057770000000    -0.388481   
O262     O      0.975050000000     0.402930000000     0.099580000000    -0.376382   
O263     O      0.954510000000     0.021040000000     0.289300000000    -0.378697   
O264     O      0.968580000000     0.053480000000     0.227100000000    -0.376259   
O265     O      0.914540000000     0.475050000000     0.260880000000    -0.346023   
O266     O      0.974940000000     0.475700000000     0.353080000000    -0.527535   
O267     O      0.901550000000     0.473240000000     0.110510000000    -0.529451   
O268     O      0.937780000000     0.471650000000     0.478530000000    -0.335499   
O269     O      0.962430000000     0.451280000000     0.165340000000    -0.500788   
O270     O      0.954770000000     0.002360000000     0.165120000000    -0.630182   
O271     O      0.560840000000     0.034020000000     0.243600000000    -0.38278    
O272     O      0.528480000000     0.060660000000     0.197070000000    -0.37669    
O273     O      0.557090000000     0.443490000000     0.020430000000    -0.386502   
O274     O      0.539590000000     0.410500000000     0.077540000000    -0.376114   
O275     O      0.537310000000     0.030620000000     0.010600000000    -0.376916   
O276     O      0.513620000000     0.058800000000     0.071320000000    -0.37469    
O277     O      0.575000000000     0.445500000000     0.241110000000    -0.379147   
O278     O      0.548960000000     0.411900000000     0.201330000000    -0.375123   
O279     O      0.602350000000     0.494840000000     0.193980000000    -0.527841   
O280     O      0.561860000000     0.488140000000     0.322440000000    -0.350291   
O281     O      0.587630000000     0.495310000000     0.033440000000    -0.348366   
O282     O      0.527250000000     0.481790000000     0.446060000000    -0.531206   
O283     O      0.541080000000     0.012270000000     0.133040000000    -0.630779   
O284     O      0.548230000000     0.461450000000     0.133640000000    -0.498005   
O285     O      0.506020000000     0.007950000000     0.235100000000    -0.497459   
O286     O      0.997520000000     0.455490000000     0.062840000000    -0.632253   
O287     O      0.513230000000     0.457820000000     0.235510000000    -0.630879   
O288     O      0.990290000000     0.005750000000     0.063230000000    -0.495741   
O289     O      0.808350000000     0.258950000000     0.000860000000    -0.38362    
O290     O      0.790760000000     0.293630000000     0.448820000000    -0.37695    
O291     O      0.808990000000     0.173080000000     0.268560000000    -0.376292   
O292     O      0.775670000000     0.146420000000     0.311980000000    -0.375428   
O293     O      0.828770000000     0.259710000000     0.288530000000    -0.386287   
O294     O      0.803530000000     0.294130000000     0.327050000000    -0.373906   
O295     O      0.786450000000     0.171690000000     0.498830000000    -0.379848   
O296     O      0.761550000000     0.145910000000     0.434930000000    -0.374916   
O297     O      0.837580000000     0.206940000000     0.481220000000    -0.351209   
O298     O      0.778060000000     0.219660000000     0.070750000000    -0.53014    
O299     O      0.851920000000     0.208280000000     0.311650000000    -0.521936   
O300     O      0.808390000000     0.222450000000     0.192580000000    -0.353113   
O301     O      0.798930000000     0.243310000000     0.385000000000    -0.498903   
O302     O      0.790060000000     0.193160000000     0.380250000000    -0.635329   
O303     O      0.679310000000     0.188820000000     0.461500000000    -0.384951   
O304     O      0.702340000000     0.155680000000     0.413290000000    -0.375311   
O305     O      0.712730000000     0.278980000000     0.241890000000    -0.384922   
O306     O      0.740890000000     0.304430000000     0.300820000000    -0.377434   
O307     O      0.697640000000     0.191070000000     0.230530000000    -0.37775    
O308     O      0.714930000000     0.156630000000     0.283690000000    -0.376194   
O309     O      0.693290000000     0.276820000000     0.464640000000    -0.380881   
O310     O      0.727330000000     0.303570000000     0.423500000000    -0.372404   
O311     O      0.651500000000     0.237490000000     0.416080000000    -0.526289   
O312     O      0.693300000000     0.231770000000     0.042810000000    -0.34951    
O313     O      0.665460000000     0.240130000000     0.252200000000    -0.345115   
O314     O      0.727600000000     0.233460000000     0.165740000000    -0.528404   
O315     O      0.704340000000     0.206710000000     0.350450000000    -0.634583   
O316     O      0.713760000000     0.256990000000     0.355810000000    -0.49975    
O317     O      0.739650000000     0.199390000000     0.451590000000    -0.500546   
O318     O      0.764140000000     0.250830000000     0.283580000000    -0.630791   
O319     O      0.748830000000     0.249520000000     0.456970000000    -0.630574   
O320     O      0.754720000000     0.200650000000     0.278380000000    -0.497225   
Zr49     Zr     0.967150000000     0.477920000000     0.249570000000     1.38143    
Zr50     Zr     0.951730000000     0.475820000000     0.080270000000     1.37803    
Zr51     Zr     0.551900000000     0.487840000000     0.218430000000     1.37639    
Zr52     Zr     0.536270000000     0.485740000000     0.048880000000     1.38155    
Zr53     Zr     0.508880000000     0.431820000000     0.149520000000     1.37502    
Zr54     Zr     0.994450000000     0.031660000000     0.148890000000     1.37764    
Zr55     Zr     0.786400000000     0.217770000000     0.467460000000     1.37957    
Zr56     Zr     0.801280000000     0.218890000000     0.297250000000     1.377      
Zr57     Zr     0.702280000000     0.231000000000     0.438450000000     1.37828    
Zr58     Zr     0.717170000000     0.232490000000     0.268300000000     1.378      
Zr59     Zr     0.760970000000     0.274700000000     0.372720000000     1.37572    
Zr60     Zr     0.742770000000     0.175710000000     0.362530000000     1.3826     
C401     C      0.970590000000     0.409310000000     0.768350000000     0.402308   
C402     C      0.936150000000     0.042640000000     0.558550000000     0.403384   
C403     C      0.951990000000     0.406930000000     0.568890000000     0.403848   
C404     C      0.956650000000     0.045420000000     0.774570000000     0.405977   
C405     C      0.550610000000     0.056910000000     0.730370000000     0.402954   
C406     C      0.555430000000     0.419100000000     0.535380000000     0.403677   
C407     C      0.528130000000     0.053740000000     0.524790000000     0.405216   
C408     C      0.570450000000     0.420840000000     0.731270000000     0.403266   
C409     C      0.806620000000     0.283770000000     0.989480000000     0.403114   
C410     C      0.798020000000     0.150240000000     0.779450000000     0.405411   
C411     C      0.825760000000     0.284330000000     0.800650000000     0.404837   
C412     C      0.776580000000     0.149240000000     0.981420000000     0.409047   
C413     C      0.682460000000     0.164390000000     0.947730000000     0.404058   
C414     C      0.723280000000     0.301380000000     0.757850000000     0.402811   
C415     C      0.699990000000     0.166240000000     0.741390000000     0.402993   
C416     C      0.704270000000     0.299670000000     0.954220000000     0.403757   
C417     C      0.596180000000     0.139950000000     0.750640000000    -0.045431   
C418     C      0.556790000000     0.105600000000     0.738420000000    -0.021709   
C419     C      0.635130000000     0.144500000000     0.679680000000     0.0190149  
C420     C      0.583430000000     0.119940000000     0.717070000000     0.0162849  
C421     C      0.664040000000     0.156180000000     0.662700000000    -0.0243947  
C422     C      0.596390000000     0.112670000000     0.664060000000    -0.0390684  
C423     C      0.622090000000     0.124820000000     0.645530000000    -0.0463103  
C424     C      0.621750000000     0.152200000000     0.731950000000    -0.0391264  
C425     C      0.589030000000     0.104840000000     0.905900000000    -0.0473041  
C426     C      0.550420000000     0.071780000000     0.934170000000    -0.021681   
C427     C      0.635630000000     0.106520000000     0.955860000000     0.0156656  
C428     C      0.580100000000     0.083910000000     0.941610000000     0.0206059  
C429     C      0.665540000000     0.118300000000     0.962310000000    -0.0226178  
C430     C      0.599270000000     0.074230000000     0.984190000000    -0.039401   
C431     C      0.626770000000     0.085530000000     0.991450000000    -0.0449963  
C432     C      0.616630000000     0.115940000000     0.912710000000    -0.0388836  
C433     C      0.650840000000     0.327260000000     0.745210000000    -0.038772   
C434     C      0.694650000000     0.323430000000     0.679380000000    -0.0224883  
C435     C      0.614890000000     0.361940000000     0.732270000000     0.0167061  
C436     C      0.666950000000     0.336970000000     0.697910000000     0.0199     
C437     C      0.586390000000     0.374590000000     0.748980000000    -0.0223943  
C438     C      0.656690000000     0.359120000000     0.667630000000    -0.046081   
C439     C      0.630780000000     0.371410000000     0.684420000000    -0.0389644  
C440     C      0.625060000000     0.339690000000     0.762340000000    -0.0463469  
C441     C      0.901390000000     0.087360000000     0.735740000000    -0.0358324  
C442     C      0.945540000000     0.092040000000     0.800860000000    -0.0201576  
C443     C      0.862100000000     0.119370000000     0.737620000000     0.0215297  
C444     C      0.916030000000     0.101100000000     0.780040000000     0.0183757  
C445     C      0.834180000000     0.129820000000     0.712400000000    -0.0226919  
C446     C      0.903530000000     0.124240000000     0.802510000000    -0.0457638  
C447     C      0.876780000000     0.133340000000     0.781360000000    -0.0412192  
C448     C      0.874500000000     0.096200000000     0.715460000000    -0.0469169  
C449     C      0.897380000000     0.346880000000     0.601130000000    -0.0407267  
C450     C      0.946110000000     0.358460000000     0.557430000000    -0.0202944  
C451     C      0.869330000000     0.309370000000     0.567150000000     0.0156831  
C452     C      0.919400000000     0.341260000000     0.560540000000     0.0136094  
C453     C      0.842190000000     0.292770000000     0.569090000000    -0.0220838  
C454     C      0.916180000000     0.319540000000     0.523260000000    -0.0456172  
C455     C      0.891310000000     0.303740000000     0.526520000000    -0.0417626  
C456     C      0.872490000000     0.331130000000     0.604310000000    -0.0465004  
C457     C      0.879810000000     0.124530000000     0.536560000000    -0.0413882  
C458     C      0.916910000000     0.088110000000     0.544070000000    -0.0208148  
C459     C      0.828610000000     0.117310000000     0.557830000000     0.0213806  
C460     C      0.885730000000     0.097680000000     0.545440000000     0.0130379  
C461     C      0.798520000000     0.127950000000     0.568520000000    -0.021424   
C462     C      0.862670000000     0.080760000000     0.560630000000    -0.0386855  
C463     C      0.834340000000     0.090430000000     0.565890000000    -0.0490464  
C464     C      0.851480000000     0.134260000000     0.542600000000    -0.0460732  
C465     C      0.650420000000     0.359970000000     0.915860000000    -0.0403055  
C466     C      0.697900000000     0.348200000000     0.964270000000    -0.0213738  
C467     C      0.617820000000     0.392860000000     0.956620000000     0.0175745  
C468     C      0.670610000000     0.364630000000     0.960590000000     0.0156996  
C469     C      0.589630000000     0.408040000000     0.954790000000    -0.0238136  
C470     C      0.664340000000     0.383710000000     0.502990000000    -0.0448391  
C471     C      0.638140000000     0.397740000000     0.501000000000    -0.0407741  
C472     C      0.624220000000     0.373960000000     0.913910000000    -0.0455168  
C473     C      0.928380000000     0.337570000000     0.832810000000    -0.0434994  
C474     C      0.972930000000     0.361900000000     0.797580000000    -0.0207016  
C475     C      0.899580000000     0.310260000000     0.767600000000     0.0147192  
C476     C      0.947690000000     0.343560000000     0.787300000000     0.0182468  
C477     C      0.874360000000     0.291820000000     0.756790000000    -0.0206493  
C478     C      0.942980000000     0.332510000000     0.732140000000    -0.0413725  
C479     C      0.919360000000     0.315740000000     0.722620000000    -0.0454998  
C480     C      0.904620000000     0.320940000000     0.823160000000    -0.041743   
H561     H      0.936820000000     0.011920000000     0.671180000000     0.196461   
H562     H      0.996290000000     0.443830000000     0.529730000000     0.188344   
H563     H      0.555780000000     0.025540000000     0.626400000000     0.194341   
H564     H      0.517820000000     0.447040000000     0.768900000000     0.193451   
H565     H      0.952100000000     0.459170000000     0.961900000000     0.131429   
H566     H      0.518430000000     0.496280000000     0.925300000000     0.199343   
H567     H      0.597950000000     0.483960000000     0.561770000000     0.138476   
H568     H      0.607610000000     0.008270000000     0.666110000000     0.193066   
H569     H      0.550170000000     0.002990000000     0.837740000000     0.145055   
H570     H      0.984660000000     0.460610000000     0.869780000000     0.188868   
H571     H      0.908810000000     0.459680000000     0.736980000000     0.141593   
H572     H      0.890120000000     0.489130000000     0.614450000000     0.195674   
H573     H      0.617340000000     0.484410000000     0.712440000000     0.204007   
H574     H      0.968390000000     0.489850000000     0.877980000000     0.208282   
H575     H      0.892940000000     0.456330000000     0.619230000000     0.199703   
H576     H      0.532560000000     0.465890000000     0.925510000000     0.198955   
H577     H      0.804330000000     0.179350000000     0.885150000000     0.197861   
H578     H      0.769280000000     0.262290000000     0.751660000000     0.188987   
H579     H      0.685950000000     0.197980000000     0.843750000000     0.194482   
H580     H      0.748000000000     0.260500000000     0.991270000000     0.192798   
H581     H      0.808250000000     0.241580000000     0.684360000000     0.132328   
H582     H      0.730510000000     0.217100000000     0.645120000000     0.200822   
H583     H      0.659920000000     0.253290000000     0.782030000000     0.137126   
H584     H      0.643090000000     0.229260000000     0.882110000000     0.188684   
H585     H      0.699960000000     0.214320000000     0.556710000000     0.141955   
H586     H      0.775900000000     0.236550000000     0.589660000000     0.194906   
H587     H      0.848100000000     0.219030000000     0.954750000000     0.136188   
H588     H      0.858270000000     0.200570000000     0.847940000000     0.187184   
H589     H      0.639480000000     0.248110000000     0.941400000000     0.203365   
H590     H      0.777230000000     0.203640000000     0.593350000000     0.209265   
H591     H      0.865800000000     0.211320000000     0.780770000000     0.200693   
H592     H      0.728790000000     0.250040000000     0.645240000000     0.198497   
H593     H      0.689170000000     0.128710000000     0.713490000000     0.101367   
H594     H      0.547620000000     0.115210000000     0.777820000000     0.0330102  
H595     H      0.539760000000     0.106770000000     0.704150000000     0.0486663  
H596     H      0.631510000000     0.167300000000     0.758950000000     0.0405011  
H597     H      0.586570000000     0.145890000000     0.791620000000     0.0352691  
H598     H      0.671310000000     0.148840000000     0.619490000000     0.0364687  
H599     H      0.586870000000     0.097250000000     0.637580000000     0.0412768  
H600     H      0.632050000000     0.118530000000     0.605130000000     0.0382928  
H601     H      0.661600000000     0.177920000000     0.659490000000     0.0512085  
H602     H      0.581690000000     0.075270000000     0.781780000000     0.0995706  
H603     H      0.647960000000     0.153780000000     0.500960000000     0.0975384  
H604     H      0.538090000000     0.081810000000     0.898900000000     0.0351007  
H605     H      0.552920000000     0.050920000000     0.920330000000     0.0476168  
H606     H      0.623200000000     0.131920000000     0.884340000000     0.0407664  
H607     H      0.574660000000     0.112550000000     0.872680000000     0.0365725  
H608     H      0.677560000000     0.109400000000     0.999430000000     0.0372277  
H609     H      0.592930000000     0.057980000000     0.511920000000     0.0482492  
H610     H      0.641150000000     0.077780000000     0.524650000000     0.0372247  
H611     H      0.677730000000     0.113740000000     0.921750000000     0.0510938  
H612     H      0.526490000000     0.093010000000     0.999880000000     0.0996656  
H613     H      0.606690000000     0.410370000000     0.780090000000     0.0981629  
H614     H      0.689400000000     0.303220000000     0.664090000000     0.0472604  
H615     H      0.704750000000     0.333780000000     0.641820000000     0.03293    
H616     H      0.612940000000     0.331760000000     0.798780000000     0.0358076  
H617     H      0.658180000000     0.310040000000     0.768830000000     0.0446129  
H618     H      0.570390000000     0.369360000000     0.714590000000     0.0501336  
H619     H      0.668620000000     0.366830000000     0.630820000000     0.0372568  
H620     H      0.623070000000     0.388240000000     0.659870000000     0.0446717  
H621     H      0.577980000000     0.366610000000     0.790740000000     0.0325309  
H622     H      0.724270000000     0.341440000000     0.740250000000     0.100224   
H623     H      0.802510000000     0.110060000000     0.765890000000     0.101483   
H624     H      0.962300000000     0.097640000000     0.768250000000     0.0477276  
H625     H      0.951480000000     0.102210000000     0.842030000000     0.0331728  
H626     H      0.863530000000     0.085030000000     0.681940000000     0.0404117  
H627     H      0.910670000000     0.069820000000     0.716550000000     0.0448263  
H628     H      0.837760000000     0.150240000000     0.696440000000     0.0488389  
H629     H      0.914580000000     0.135440000000     0.836000000000     0.0356112  
H630     H      0.867690000000     0.151400000000     0.798680000000     0.0421065  
H631     H      0.827460000000     0.117820000000     0.674650000000     0.0353183  
H632     H      0.935410000000     0.057080000000     0.850080000000     0.101208   
H633     H      0.819960000000     0.321040000000     0.514430000000     0.10134    
H634     H      0.958010000000     0.356570000000     0.599320000000     0.045976   
H635     H      0.961000000000     0.351940000000     0.522090000000     0.0349321  
H636     H      0.855740000000     0.335900000000     0.635770000000     0.0388917  
H637     H      0.899520000000     0.363490000000     0.630460000000     0.0440268  
H638     H      0.848540000000     0.271750000000     0.564370000000     0.0460726  
H639     H      0.932830000000     0.314860000000     0.991490000000     0.0360309  
H640     H      0.889100000000     0.287210000000     0.997060000000     0.0406929  
H641     H      0.830660000000     0.295180000000     0.611300000000     0.0313447  
H642     H      0.920080000000     0.389350000000     0.518570000000     0.0993894  
H643     H      0.774320000000     0.109290000000     0.999740000000     0.101301   
H644     H      0.929440000000     0.099130000000     0.510610000000     0.0376691  
H645     H      0.926680000000     0.092440000000     0.587290000000     0.0481577  
H646     H      0.847500000000     0.155100000000     0.536490000000     0.0537409  
H647     H      0.897250000000     0.138060000000     0.525980000000     0.0375428  
H648     H      0.786880000000     0.115480000000     0.600760000000     0.0341468  
H649     H      0.866490000000     0.060120000000     0.569710000000     0.0392658  
H650     H      0.817020000000     0.077060000000     0.578150000000     0.0383305  
H651     H      0.799670000000     0.148150000000     0.587120000000     0.0449745  
H652     H      0.905770000000     0.052900000000     0.995940000000     0.100993   
H653     H      0.569440000000     0.381270000000     0.516020000000     0.0999572  
H654     H      0.709610000000     0.349810000000     0.922050000000     0.0493797  
H655     H      0.712710000000     0.355550000000     0.998910000000     0.0364757  
H656     H      0.608890000000     0.369910000000     0.879290000000     0.0368885  
H657     H      0.654820000000     0.345240000000     0.882920000000     0.0428808  
H658     H      0.595190000000     0.429360000000     0.955050000000     0.0495126  
H659     H      0.679640000000     0.387690000000     0.537740000000     0.0358265  
H660     H      0.633640000000     0.412310000000     0.534240000000     0.04194    
H661     H      0.577230000000     0.403840000000     0.914280000000     0.0343717  
H662     H      0.672800000000     0.317340000000     0.505520000000     0.0990551  
H663     H      0.844450000000     0.321260000000     0.791210000000     0.100756   
H664     H      0.984150000000     0.356210000000     0.838570000000     0.0316464  
H665     H      0.989380000000     0.359930000000     0.762340000000     0.0463242  
H666     H      0.890210000000     0.316390000000     0.859100000000     0.0438696  
H667     H      0.931760000000     0.345760000000     0.875840000000     0.0374344  
H668     H      0.870230000000     0.289360000000     0.709410000000     0.0346281  
H669     H      0.957750000000     0.336650000000     0.696590000000     0.0409484  
H670     H      0.916620000000     0.306870000000     0.680130000000     0.0403505  
H671     H      0.880790000000     0.272290000000     0.774590000000     0.0425458  
H672     H      0.948630000000     0.393130000000     0.838480000000     0.0971312  
N81      N      0.685820000000     0.148850000000     0.706490000000    -0.212218   
N82      N      0.564420000000     0.078280000000     0.752790000000    -0.213333   
N83      N      0.663500000000     0.146860000000     0.971360000000    -0.213361   
N84      N      0.533800000000     0.074190000000     0.988380000000    -0.2127     
N85      N      0.589620000000     0.403280000000     0.754300000000    -0.21307    
N86      N      0.715570000000     0.323290000000     0.727590000000    -0.213641   
N87      N      0.810690000000     0.128680000000     0.755370000000    -0.212828   
N88      N      0.945500000000     0.063590000000     0.811900000000    -0.21292    
N89      N      0.822580000000     0.300840000000     0.521960000000    -0.213327   
N90      N      0.937630000000     0.385850000000     0.546590000000    -0.214153   
N91      N      0.781970000000     0.127560000000     0.514220000000    -0.212979   
N92      N      0.918550000000     0.059920000000     0.530310000000    -0.213435   
N93      N      0.571440000000     0.401200000000     0.505160000000    -0.213519   
N94      N      0.690150000000     0.320800000000     0.976950000000    -0.213133   
N95      N      0.847540000000     0.301020000000     0.785210000000    -0.21434    
N96      N      0.962390000000     0.389030000000     0.803300000000    -0.212519   
O321     O      0.961130000000     0.432410000000     0.781820000000    -0.385271   
O322     O      0.987490000000     0.404530000000     0.724890000000    -0.373834   
O323     O      0.933550000000     0.018120000000     0.545210000000    -0.374606   
O324     O      0.954250000000     0.051550000000     0.596520000000    -0.375364   
O325     O      0.941370000000     0.429840000000     0.557780000000    -0.388571   
O326     O      0.975040000000     0.402930000000     0.599580000000    -0.376468   
O327     O      0.954510000000     0.021040000000     0.789300000000    -0.378848   
O328     O      0.968580000000     0.053480000000     0.727100000000    -0.376237   
O329     O      0.914540000000     0.475050000000     0.760880000000    -0.346083   
O330     O      0.974940000000     0.475700000000     0.853080000000    -0.527538   
O331     O      0.901550000000     0.473240000000     0.610510000000    -0.529121   
O332     O      0.937780000000     0.471650000000     0.978530000000    -0.335554   
O333     O      0.962430000000     0.451280000000     0.665350000000    -0.500766   
O334     O      0.954770000000     0.002360000000     0.665120000000    -0.630184   
O335     O      0.560840000000     0.034020000000     0.743600000000    -0.382783   
O336     O      0.528480000000     0.060660000000     0.697070000000    -0.376737   
O337     O      0.557090000000     0.443490000000     0.520430000000    -0.386521   
O338     O      0.539590000000     0.410500000000     0.577540000000    -0.376076   
O339     O      0.537310000000     0.030620000000     0.510600000000    -0.376938   
O340     O      0.513620000000     0.058800000000     0.571320000000    -0.374721   
O341     O      0.575000000000     0.445500000000     0.741110000000    -0.379198   
O342     O      0.548970000000     0.411900000000     0.701330000000    -0.375172   
O343     O      0.602350000000     0.494840000000     0.693980000000    -0.527834   
O344     O      0.561860000000     0.488140000000     0.822440000000    -0.3503     
O345     O      0.587630000000     0.495310000000     0.533440000000    -0.34839    
O346     O      0.527250000000     0.481790000000     0.946070000000    -0.531145   
O347     O      0.541080000000     0.012270000000     0.633050000000    -0.630842   
O348     O      0.548230000000     0.461450000000     0.633640000000    -0.497979   
O349     O      0.506020000000     0.007950000000     0.735100000000    -0.497483   
O350     O      0.997520000000     0.455500000000     0.562840000000    -0.632081   
O351     O      0.513230000000     0.457820000000     0.735510000000    -0.630909   
O352     O      0.990290000000     0.005750000000     0.563220000000    -0.495707   
O353     O      0.808350000000     0.258950000000     0.500860000000    -0.383672   
O354     O      0.790760000000     0.293630000000     0.948820000000    -0.376896   
O355     O      0.808990000000     0.173080000000     0.768560000000    -0.37631    
O356     O      0.775670000000     0.146420000000     0.811980000000    -0.375489   
O357     O      0.828770000000     0.259710000000     0.788530000000    -0.38634    
O358     O      0.803540000000     0.294130000000     0.827050000000    -0.373977   
O359     O      0.786440000000     0.171690000000     0.998830000000    -0.37991    
O360     O      0.761550000000     0.145920000000     0.934920000000    -0.375063   
O361     O      0.837590000000     0.206940000000     0.981210000000    -0.351403   
O362     O      0.778070000000     0.219660000000     0.570750000000    -0.53015    
O363     O      0.851930000000     0.208280000000     0.811650000000    -0.522178   
O364     O      0.808390000000     0.222450000000     0.692580000000    -0.353119   
O365     O      0.798930000000     0.243310000000     0.885000000000    -0.49891    
O366     O      0.790070000000     0.193160000000     0.880250000000    -0.635514   
O367     O      0.679310000000     0.188820000000     0.961500000000    -0.384967   
O368     O      0.702340000000     0.155680000000     0.913290000000    -0.375134   
O369     O      0.712730000000     0.278980000000     0.741890000000    -0.384889   
O370     O      0.740900000000     0.304430000000     0.800820000000    -0.377308   
O371     O      0.697640000000     0.191070000000     0.730520000000    -0.37772    
O372     O      0.714930000000     0.156630000000     0.783680000000    -0.376166   
O373     O      0.693290000000     0.276820000000     0.964640000000    -0.380917   
O374     O      0.727330000000     0.303570000000     0.923500000000    -0.37238    
O375     O      0.651500000000     0.237490000000     0.916080000000    -0.526535   
O376     O      0.693300000000     0.231770000000     0.542810000000    -0.349519   
O377     O      0.665460000000     0.240130000000     0.752200000000    -0.345122   
O378     O      0.727600000000     0.233460000000     0.665740000000    -0.528395   
O379     O      0.704340000000     0.206710000000     0.850450000000    -0.63447    
O380     O      0.713760000000     0.256990000000     0.855810000000    -0.499708   
O381     O      0.739650000000     0.199390000000     0.951590000000    -0.500437   
O382     O      0.764140000000     0.250830000000     0.783580000000    -0.630781   
O383     O      0.748830000000     0.249520000000     0.956970000000    -0.630502   
O384     O      0.754720000000     0.200650000000     0.778380000000    -0.497244   
Zr61     Zr     0.967150000000     0.477920000000     0.749570000000     1.38153    
Zr62     Zr     0.951730000000     0.475820000000     0.580270000000     1.37792    
Zr63     Zr     0.551900000000     0.487840000000     0.718430000000     1.37637    
Zr64     Zr     0.536270000000     0.485740000000     0.548880000000     1.38148    
Zr65     Zr     0.508880000000     0.431820000000     0.649530000000     1.37491    
Zr66     Zr     0.994450000000     0.031660000000     0.648890000000     1.3776     
Zr67     Zr     0.786410000000     0.217770000000     0.967460000000     1.37939    
Zr68     Zr     0.801280000000     0.218890000000     0.797250000000     1.37696    
Zr69     Zr     0.702280000000     0.231000000000     0.938460000000     1.37826    
Zr70     Zr     0.717170000000     0.232490000000     0.768300000000     1.37797    
Zr71     Zr     0.760970000000     0.274700000000     0.872720000000     1.37567    
Zr72     Zr     0.742780000000     0.175710000000     0.862530000000     1.38256    
C481     C      0.970590000000     0.909310000000     0.268350000000     0.402213   
C482     C      0.936150000000     0.542630000000     0.058550000000     0.403589   
C483     C      0.951990000000     0.906930000000     0.068890000000     0.403734   
C484     C      0.956650000000     0.545430000000     0.274570000000     0.406076   
C485     C      0.550610000000     0.556910000000     0.230370000000     0.402936   
C486     C      0.555430000000     0.919090000000     0.035380000000     0.403532   
C487     C      0.528140000000     0.553740000000     0.024790000000     0.405381   
C488     C      0.570450000000     0.920830000000     0.231260000000     0.402692   
C489     C      0.806620000000     0.783780000000     0.489470000000     0.403446   
C490     C      0.798020000000     0.650250000000     0.279450000000     0.405459   
C491     C      0.825760000000     0.784330000000     0.300650000000     0.404673   
C492     C      0.776580000000     0.649230000000     0.481430000000     0.408999   
C493     C      0.682470000000     0.664390000000     0.447730000000     0.404161   
C494     C      0.723280000000     0.801380000000     0.257860000000     0.402995   
C495     C      0.699990000000     0.666240000000     0.241390000000     0.403147   
C496     C      0.704270000000     0.799660000000     0.454210000000     0.403865   
C497     C      0.596180000000     0.639950000000     0.250630000000    -0.0453537  
C498     C      0.556790000000     0.605600000000     0.238420000000    -0.0216405  
C499     C      0.635130000000     0.644500000000     0.179680000000     0.0190732  
C500     C      0.583420000000     0.619940000000     0.217070000000     0.0162177  
C501     C      0.664040000000     0.656180000000     0.162700000000    -0.024485   
C502     C      0.596390000000     0.612670000000     0.164060000000    -0.0390383  
C503     C      0.622090000000     0.624820000000     0.145530000000    -0.0463813  
C504     C      0.621750000000     0.652200000000     0.231950000000    -0.0391868  
C505     C      0.589030000000     0.604840000000     0.405900000000    -0.0472851  
C506     C      0.550420000000     0.571780000000     0.434170000000    -0.0216272  
C507     C      0.635630000000     0.606520000000     0.455860000000     0.0156189  
C508     C      0.580100000000     0.583910000000     0.441610000000     0.0204487  
C509     C      0.665540000000     0.618300000000     0.462310000000    -0.0225839  
C510     C      0.599270000000     0.574230000000     0.484190000000    -0.0393454  
C511     C      0.626770000000     0.585530000000     0.491450000000    -0.0450357  
C512     C      0.616640000000     0.615940000000     0.412710000000    -0.0389483  
C513     C      0.650830000000     0.827260000000     0.245210000000    -0.0386923  
C514     C      0.694650000000     0.823430000000     0.179380000000    -0.0224834  
C515     C      0.614890000000     0.861940000000     0.232280000000     0.0167174  
C516     C      0.666950000000     0.836960000000     0.197910000000     0.0198275  
C517     C      0.586390000000     0.874590000000     0.248980000000    -0.0224024  
C518     C      0.656680000000     0.859110000000     0.167630000000    -0.045984   
C519     C      0.630780000000     0.871410000000     0.184420000000    -0.0390227  
C520     C      0.625060000000     0.839680000000     0.262340000000    -0.0463748  
C521     C      0.901390000000     0.587370000000     0.235740000000    -0.0357177  
C522     C      0.945540000000     0.592030000000     0.300860000000    -0.0199787  
C523     C      0.862100000000     0.619380000000     0.237610000000     0.0215712  
C524     C      0.916030000000     0.601100000000     0.280040000000     0.0182112  
C525     C      0.834180000000     0.629830000000     0.212400000000    -0.0227841  
C526     C      0.903530000000     0.624250000000     0.302510000000    -0.0457003  
C527     C      0.876780000000     0.633340000000     0.281360000000    -0.0413058  
C528     C      0.874500000000     0.596200000000     0.215460000000    -0.0470576  
C529     C      0.897380000000     0.846880000000     0.101140000000    -0.0408483  
C530     C      0.946110000000     0.858450000000     0.057430000000    -0.0204442  
C531     C      0.869330000000     0.809380000000     0.067160000000     0.0156073  
C532     C      0.919400000000     0.841250000000     0.060540000000     0.0137133  
C533     C      0.842190000000     0.792780000000     0.069090000000    -0.021935   
C534     C      0.916180000000     0.819540000000     0.023270000000    -0.0455814  
C535     C      0.891310000000     0.803740000000     0.026520000000    -0.0416287  
C536     C      0.872490000000     0.831130000000     0.104300000000    -0.0464331  
C537     C      0.879810000000     0.624530000000     0.036560000000    -0.0412299  
C538     C      0.916900000000     0.588100000000     0.044080000000    -0.0206606  
C539     C      0.828610000000     0.617300000000     0.057830000000     0.0214361  
C540     C      0.885720000000     0.597680000000     0.045440000000     0.0129033  
C541     C      0.798520000000     0.627950000000     0.068520000000    -0.0214365  
C542     C      0.862670000000     0.580760000000     0.060640000000    -0.0386563  
C543     C      0.834340000000     0.590430000000     0.065890000000    -0.0492102  
C544     C      0.851480000000     0.634270000000     0.042600000000    -0.0462012  
C545     C      0.650420000000     0.859970000000     0.415860000000    -0.0403076  
C546     C      0.697900000000     0.848200000000     0.464260000000    -0.0213916  
C547     C      0.617820000000     0.892860000000     0.456630000000     0.0176588  
C548     C      0.670610000000     0.864640000000     0.460590000000     0.0157518  
C549     C      0.589630000000     0.908050000000     0.454790000000    -0.0238259  
C550     C      0.664340000000     0.883720000000     0.002980000000    -0.0448425  
C551     C      0.638140000000     0.897730000000     0.001000000000    -0.0406399  
C552     C      0.624220000000     0.873960000000     0.413910000000    -0.0455784  
C553     C      0.928380000000     0.837570000000     0.332820000000    -0.0435586  
C554     C      0.972930000000     0.861890000000     0.297580000000    -0.0208264  
C555     C      0.899580000000     0.810260000000     0.267600000000     0.0147545  
C556     C      0.947690000000     0.843550000000     0.287300000000     0.0183397  
C557     C      0.874360000000     0.791820000000     0.256790000000    -0.0206628  
C558     C      0.942980000000     0.832510000000     0.232140000000    -0.041399   
C559     C      0.919350000000     0.815740000000     0.222620000000    -0.0454971  
C560     C      0.904620000000     0.820930000000     0.323160000000    -0.0417216  
H673     H      0.936820000000     0.511920000000     0.171180000000     0.196165   
H674     H      0.996290000000     0.943830000000     0.029730000000     0.188414   
H675     H      0.555780000000     0.525540000000     0.126400000000     0.194262   
H676     H      0.517820000000     0.947040000000     0.268900000000     0.193494   
H677     H      0.952100000000     0.959170000000     0.461900000000     0.131507   
H678     H      0.518430000000     0.996280000000     0.425300000000     0.198549   
H679     H      0.597950000000     0.983960000000     0.061770000000     0.138265   
H680     H      0.607610000000     0.508260000000     0.166110000000     0.190672   
H681     H      0.550170000000     0.502990000000     0.337740000000     0.142586   
H682     H      0.984660000000     0.960610000000     0.369780000000     0.188651   
H683     H      0.908820000000     0.959680000000     0.236970000000     0.14156    
H684     H      0.890120000000     0.989130000000     0.114450000000     0.194845   
H685     H      0.617340000000     0.984420000000     0.212440000000     0.204413   
H686     H      0.968390000000     0.989850000000     0.377980000000     0.207756   
H687     H      0.892940000000     0.956330000000     0.119220000000     0.199539   
H688     H      0.532560000000     0.965890000000     0.425510000000     0.198933   
H689     H      0.804330000000     0.679350000000     0.385150000000     0.197861   
H690     H      0.769280000000     0.762290000000     0.251660000000     0.18881    
H691     H      0.685950000000     0.697980000000     0.343750000000     0.19453    
H692     H      0.747990000000     0.760500000000     0.491270000000     0.192834   
H693     H      0.808250000000     0.741590000000     0.184350000000     0.13215    
H694     H      0.730510000000     0.717100000000     0.145120000000     0.200828   
H695     H      0.659920000000     0.753290000000     0.282030000000     0.137147   
H696     H      0.643080000000     0.729260000000     0.382100000000     0.188507   
H697     H      0.699960000000     0.714320000000     0.056710000000     0.141985   
H698     H      0.775900000000     0.736550000000     0.089660000000     0.194907   
H699     H      0.848100000000     0.719030000000     0.454750000000     0.136276   
H700     H      0.858270000000     0.700560000000     0.347930000000     0.187164   
H701     H      0.639480000000     0.748110000000     0.441400000000     0.203351   
H702     H      0.777220000000     0.703640000000     0.093350000000     0.209249   
H703     H      0.865800000000     0.711320000000     0.280760000000     0.200422   
H704     H      0.728790000000     0.750040000000     0.145240000000     0.19852    
H705     H      0.689170000000     0.628710000000     0.213490000000     0.10127    
H706     H      0.547620000000     0.615210000000     0.277820000000     0.0330124  
H707     H      0.539760000000     0.606760000000     0.204150000000     0.0486982  
H708     H      0.631510000000     0.667300000000     0.258940000000     0.0405436  
H709     H      0.586570000000     0.645890000000     0.291620000000     0.0352684  
H710     H      0.671310000000     0.648830000000     0.119490000000     0.0364779  
H711     H      0.586870000000     0.597250000000     0.137580000000     0.0412186  
H712     H      0.632050000000     0.618520000000     0.105140000000     0.0382875  
H713     H      0.661600000000     0.677910000000     0.159490000000     0.0512617  
H714     H      0.581690000000     0.575270000000     0.281770000000     0.0993688  
H715     H      0.647960000000     0.653780000000     0.000970000000     0.0975462  
H716     H      0.538090000000     0.581810000000     0.398910000000     0.0350421  
H717     H      0.552920000000     0.550920000000     0.420340000000     0.0472575  
H718     H      0.623200000000     0.631920000000     0.384340000000     0.040785   
H719     H      0.574660000000     0.612550000000     0.372680000000     0.0365708  
H720     H      0.677560000000     0.609400000000     0.499430000000     0.0371318  
H721     H      0.592930000000     0.557980000000     0.011920000000     0.0479453  
H722     H      0.641150000000     0.577780000000     0.024650000000     0.0370716  
H723     H      0.677730000000     0.613740000000     0.421750000000     0.0509722  
H724     H      0.526490000000     0.593010000000     0.499880000000     0.0997892  
H725     H      0.606690000000     0.910370000000     0.280080000000     0.0981034  
H726     H      0.689400000000     0.803220000000     0.164090000000     0.0472831  
H727     H      0.704750000000     0.833780000000     0.141830000000     0.0329245  
H728     H      0.612940000000     0.831760000000     0.298780000000     0.0358504  
H729     H      0.658180000000     0.810040000000     0.268830000000     0.0446028  
H730     H      0.570390000000     0.869350000000     0.214590000000     0.0501441  
H731     H      0.668620000000     0.866830000000     0.130810000000     0.037171   
H732     H      0.623070000000     0.888240000000     0.159870000000     0.0446457  
H733     H      0.577980000000     0.866610000000     0.290740000000     0.0325602  
H734     H      0.724270000000     0.841440000000     0.240250000000     0.100167   
H735     H      0.802510000000     0.610060000000     0.265890000000     0.101318   
H736     H      0.962300000000     0.597640000000     0.268250000000     0.0476885  
H737     H      0.951490000000     0.602210000000     0.342030000000     0.0331129  
H738     H      0.863530000000     0.585030000000     0.181940000000     0.0402959  
H739     H      0.910670000000     0.569810000000     0.216550000000     0.0445963  
H740     H      0.837760000000     0.650240000000     0.196450000000     0.0488984  
H741     H      0.914580000000     0.635440000000     0.336000000000     0.0356297  
H742     H      0.867690000000     0.651390000000     0.298680000000     0.042165   
H743     H      0.827450000000     0.617820000000     0.174650000000     0.0352965  
H744     H      0.935410000000     0.557070000000     0.350080000000     0.100921   
H745     H      0.819960000000     0.821030000000     0.014430000000     0.101451   
H746     H      0.958010000000     0.856570000000     0.099320000000     0.0460442  
H747     H      0.961000000000     0.851940000000     0.022090000000     0.0350258  
H748     H      0.855740000000     0.835890000000     0.135770000000     0.0388409  
H749     H      0.899520000000     0.863480000000     0.130460000000     0.0440538  
H750     H      0.848540000000     0.771750000000     0.064370000000     0.0460635  
H751     H      0.932830000000     0.814860000000     0.491490000000     0.0361546  
H752     H      0.889100000000     0.787210000000     0.497060000000     0.0407496  
H753     H      0.830660000000     0.795190000000     0.111310000000     0.031306   
H754     H      0.920080000000     0.889350000000     0.018570000000     0.0993601  
H755     H      0.774320000000     0.609290000000     0.499740000000     0.101225   
H756     H      0.929440000000     0.599130000000     0.010610000000     0.0376234  
H757     H      0.926680000000     0.592440000000     0.087290000000     0.0481215  
H758     H      0.847500000000     0.655100000000     0.036490000000     0.0538227  
H759     H      0.897260000000     0.638070000000     0.025980000000     0.0375189  
H760     H      0.786880000000     0.615470000000     0.100760000000     0.0340577  
H761     H      0.866490000000     0.560120000000     0.069710000000     0.0389361  
H762     H      0.817020000000     0.577070000000     0.078150000000     0.0381224  
H763     H      0.799670000000     0.648150000000     0.087120000000     0.044997   
H764     H      0.905770000000     0.552900000000     0.495940000000     0.100747   
H765     H      0.569440000000     0.881270000000     0.016030000000     0.0999938  
H766     H      0.709610000000     0.849810000000     0.422050000000     0.0493447  
H767     H      0.712710000000     0.855550000000     0.498920000000     0.0364473  
H768     H      0.608900000000     0.869910000000     0.379290000000     0.036925   
H769     H      0.654820000000     0.845240000000     0.382920000000     0.0428794  
H770     H      0.595190000000     0.929360000000     0.455050000000     0.0494539  
H771     H      0.679640000000     0.887690000000     0.037740000000     0.0357344  
H772     H      0.633630000000     0.912310000000     0.034240000000     0.0417904  
H773     H      0.577230000000     0.903840000000     0.414280000000     0.0343954  
H774     H      0.672800000000     0.817340000000     0.005510000000     0.0991512  
H775     H      0.844450000000     0.821260000000     0.291200000000     0.100725   
H776     H      0.984150000000     0.856200000000     0.338570000000     0.0317193  
H777     H      0.989380000000     0.859930000000     0.262340000000     0.0463913  
H778     H      0.890210000000     0.816390000000     0.359110000000     0.0438734  
H779     H      0.931760000000     0.845760000000     0.375840000000     0.0374751  
H780     H      0.870230000000     0.789360000000     0.209410000000     0.034648   
H781     H      0.957750000000     0.836650000000     0.196590000000     0.0409822  
H782     H      0.916620000000     0.806870000000     0.180130000000     0.0403802  
H783     H      0.880790000000     0.772290000000     0.274590000000     0.0425789  
H784     H      0.948630000000     0.893130000000     0.338480000000     0.0971172  
N97      N      0.685820000000     0.648850000000     0.206500000000    -0.21227    
N98      N      0.564420000000     0.578290000000     0.252780000000    -0.213299   
N99      N      0.663500000000     0.646860000000     0.471360000000    -0.213303   
N100     N      0.533800000000     0.574200000000     0.488380000000    -0.212768   
N101     N      0.589620000000     0.903280000000     0.254300000000    -0.213028   
N102     N      0.715570000000     0.823290000000     0.227590000000    -0.213651   
N103     N      0.810690000000     0.628680000000     0.255370000000    -0.212752   
N104     N      0.945500000000     0.563590000000     0.311900000000    -0.213069   
N105     N      0.822580000000     0.800840000000     0.021950000000    -0.213561   
N106     N      0.937630000000     0.885850000000     0.046590000000    -0.214094   
N107     N      0.781970000000     0.627560000000     0.014220000000    -0.212876   
N108     N      0.918550000000     0.559920000000     0.030310000000    -0.213445   
N109     N      0.571440000000     0.901200000000     0.005160000000    -0.213516   
N110     N      0.690150000000     0.820800000000     0.476950000000    -0.212992   
N111     N      0.847540000000     0.801020000000     0.285210000000    -0.214308   
N112     N      0.962390000000     0.889030000000     0.303300000000    -0.212468   
O385     O      0.961130000000     0.932410000000     0.281820000000    -0.384998   
O386     O      0.987490000000     0.904530000000     0.224890000000    -0.373704   
O387     O      0.933550000000     0.518120000000     0.045210000000    -0.376206   
O388     O      0.954250000000     0.551550000000     0.096520000000    -0.375441   
O389     O      0.941370000000     0.929840000000     0.057770000000    -0.388282   
O390     O      0.975040000000     0.902930000000     0.099580000000    -0.376381   
O391     O      0.954510000000     0.521040000000     0.289300000000    -0.380167   
O392     O      0.968580000000     0.553480000000     0.227100000000    -0.376355   
O393     O      0.914540000000     0.975050000000     0.260880000000    -0.346668   
O394     O      0.974940000000     0.975710000000     0.353080000000    -0.527471   
O395     O      0.901550000000     0.973240000000     0.110510000000    -0.529095   
O396     O      0.937780000000     0.971650000000     0.478530000000    -0.336007   
O397     O      0.962430000000     0.951280000000     0.165340000000    -0.500543   
O398     O      0.954770000000     0.502360000000     0.165120000000    -0.63205    
O399     O      0.560840000000     0.534020000000     0.243600000000    -0.3839     
O400     O      0.528480000000     0.560670000000     0.197070000000    -0.376638   
O401     O      0.557090000000     0.943490000000     0.020430000000    -0.386095   
O402     O      0.539590000000     0.910500000000     0.077540000000    -0.376039   
O403     O      0.537310000000     0.530620000000     0.010600000000    -0.378252   
O404     O      0.513620000000     0.558800000000     0.071320000000    -0.374694   
O405     O      0.575000000000     0.945510000000     0.241110000000    -0.378593   
O406     O      0.548960000000     0.911900000000     0.201330000000    -0.374969   
O407     O      0.602350000000     0.994840000000     0.193980000000    -0.530732   
O408     O      0.561860000000     0.988140000000     0.322440000000    -0.352498   
O409     O      0.587630000000     0.995310000000     0.033440000000    -0.349226   
O410     O      0.527250000000     0.981790000000     0.446060000000    -0.531111   
O411     O      0.541080000000     0.512270000000     0.133040000000    -0.632645   
O412     O      0.548230000000     0.961450000000     0.133640000000    -0.497777   
O413     O      0.506020000000     0.507950000000     0.235100000000    -0.49935    
O414     O      0.997520000000     0.955500000000     0.062840000000    -0.63191    
O415     O      0.513230000000     0.957820000000     0.235510000000    -0.630696   
O416     O      0.990290000000     0.505750000000     0.063230000000    -0.497755   
O417     O      0.808350000000     0.758960000000     0.000860000000    -0.383565   
O418     O      0.790760000000     0.793630000000     0.448820000000    -0.377056   
O419     O      0.808990000000     0.673080000000     0.268560000000    -0.376425   
O420     O      0.775670000000     0.646420000000     0.311980000000    -0.375502   
O421     O      0.828770000000     0.759710000000     0.288530000000    -0.386287   
O422     O      0.803530000000     0.794130000000     0.327050000000    -0.373922   
O423     O      0.786450000000     0.671690000000     0.498830000000    -0.379722   
O424     O      0.761550000000     0.645920000000     0.434930000000    -0.375062   
O425     O      0.837590000000     0.706950000000     0.481220000000    -0.351333   
O426     O      0.778070000000     0.719660000000     0.070750000000    -0.530067   
O427     O      0.851920000000     0.708270000000     0.311650000000    -0.521915   
O428     O      0.808390000000     0.722450000000     0.192580000000    -0.352904   
O429     O      0.798930000000     0.743310000000     0.385000000000    -0.498892   
O430     O      0.790070000000     0.693160000000     0.380250000000    -0.635442   
O431     O      0.679310000000     0.688820000000     0.461500000000    -0.384937   
O432     O      0.702340000000     0.655680000000     0.413290000000    -0.375336   
O433     O      0.712730000000     0.778980000000     0.241890000000    -0.384918   
O434     O      0.740890000000     0.804430000000     0.300820000000    -0.377455   
O435     O      0.697640000000     0.691070000000     0.230530000000    -0.377766   
O436     O      0.714930000000     0.656640000000     0.283690000000    -0.376357   
O437     O      0.693290000000     0.776820000000     0.464640000000    -0.381004   
O438     O      0.727330000000     0.803570000000     0.423500000000    -0.372416   
O439     O      0.651500000000     0.737490000000     0.416080000000    -0.526287   
O440     O      0.693300000000     0.731770000000     0.042810000000    -0.349508   
O441     O      0.665460000000     0.740130000000     0.252200000000    -0.345091   
O442     O      0.727600000000     0.733460000000     0.165740000000    -0.528391   
O443     O      0.704340000000     0.706710000000     0.350450000000    -0.63458    
O444     O      0.713760000000     0.756990000000     0.355810000000    -0.499753   
O445     O      0.739650000000     0.699390000000     0.451590000000    -0.500533   
O446     O      0.764140000000     0.750820000000     0.283580000000    -0.630673   
O447     O      0.748830000000     0.749520000000     0.456970000000    -0.630562   
O448     O      0.754720000000     0.700650000000     0.278380000000    -0.49721    
Zr73     Zr     0.967150000000     0.977920000000     0.249570000000     1.37777    
Zr74     Zr     0.951730000000     0.975820000000     0.080270000000     1.37436    
Zr75     Zr     0.551900000000     0.987840000000     0.218430000000     1.37283    
Zr76     Zr     0.536270000000     0.985740000000     0.048880000000     1.37779    
Zr77     Zr     0.508880000000     0.931820000000     0.149520000000     1.37483    
Zr78     Zr     0.994450000000     0.531660000000     0.148890000000     1.37712    
Zr79     Zr     0.786400000000     0.717770000000     0.467460000000     1.37949    
Zr80     Zr     0.801280000000     0.718890000000     0.297250000000     1.37714    
Zr81     Zr     0.702280000000     0.731000000000     0.438450000000     1.37834    
Zr82     Zr     0.717170000000     0.732490000000     0.268300000000     1.37809    
Zr83     Zr     0.760970000000     0.774700000000     0.372720000000     1.37568    
Zr84     Zr     0.742770000000     0.675710000000     0.362530000000     1.38261    
C561     C      0.970590000000     0.909310000000     0.768350000000     0.402364   
C562     C      0.936150000000     0.542630000000     0.558550000000     0.403442   
C563     C      0.951990000000     0.906930000000     0.568890000000     0.403769   
C564     C      0.956650000000     0.545430000000     0.774570000000     0.406069   
C565     C      0.550610000000     0.556910000000     0.730370000000     0.403131   
C566     C      0.555430000000     0.919100000000     0.535380000000     0.403591   
C567     C      0.528140000000     0.553740000000     0.524790000000     0.405322   
C568     C      0.570450000000     0.920840000000     0.731270000000     0.402902   
C569     C      0.806630000000     0.783780000000     0.989480000000     0.403294   
C570     C      0.798020000000     0.650250000000     0.779450000000     0.40537    
C571     C      0.825760000000     0.784330000000     0.800650000000     0.404639   
C572     C      0.776580000000     0.649240000000     0.981420000000     0.40893    
C573     C      0.682460000000     0.664390000000     0.947730000000     0.403967   
C574     C      0.723280000000     0.801370000000     0.757850000000     0.40288    
C575     C      0.699990000000     0.666240000000     0.741390000000     0.40299    
C576     C      0.704270000000     0.799660000000     0.954220000000     0.403768   
C577     C      0.596180000000     0.639950000000     0.750640000000    -0.04544    
C578     C      0.556790000000     0.605600000000     0.738420000000    -0.0216483  
C579     C      0.635130000000     0.644500000000     0.679680000000     0.0190146  
C580     C      0.583430000000     0.619940000000     0.717070000000     0.0162657  
C581     C      0.664040000000     0.656190000000     0.662700000000    -0.0244624  
C582     C      0.596390000000     0.612670000000     0.664060000000    -0.0390907  
C583     C      0.622090000000     0.624820000000     0.645530000000    -0.0463273  
C584     C      0.621750000000     0.652200000000     0.731950000000    -0.0390906  
C585     C      0.589030000000     0.604840000000     0.905900000000    -0.0473004  
C586     C      0.550420000000     0.571780000000     0.934170000000    -0.021613   
C587     C      0.635630000000     0.606520000000     0.955860000000     0.0155686  
C588     C      0.580100000000     0.583910000000     0.941610000000     0.0204608  
C589     C      0.665540000000     0.618300000000     0.962310000000    -0.0224951  
C590     C      0.599270000000     0.574240000000     0.984190000000    -0.0394316  
C591     C      0.626770000000     0.585530000000     0.991450000000    -0.0450898  
C592     C      0.616630000000     0.615940000000     0.912710000000    -0.0389067  
C593     C      0.650840000000     0.827260000000     0.745210000000    -0.038707   
C594     C      0.694650000000     0.823430000000     0.679380000000    -0.0225224  
C595     C      0.614890000000     0.861940000000     0.732270000000     0.0167301  
C596     C      0.666950000000     0.836970000000     0.697910000000     0.019883   
C597     C      0.586390000000     0.874590000000     0.748980000000    -0.0224234  
C598     C      0.656690000000     0.859120000000     0.667630000000    -0.046087   
C599     C      0.630780000000     0.871410000000     0.684420000000    -0.0389936  
C600     C      0.625060000000     0.839690000000     0.762340000000    -0.0463737  
C601     C      0.901390000000     0.587370000000     0.735740000000    -0.0358172  
C602     C      0.945540000000     0.592040000000     0.800860000000    -0.0201604  
C603     C      0.862100000000     0.619380000000     0.737620000000     0.0215381  
C604     C      0.916030000000     0.601100000000     0.780040000000     0.0183075  
C605     C      0.834180000000     0.629820000000     0.712400000000    -0.022752   
C606     C      0.903530000000     0.624250000000     0.802510000000    -0.0457509  
C607     C      0.876780000000     0.633350000000     0.781360000000    -0.0412876  
C608     C      0.874500000000     0.596200000000     0.715460000000    -0.0470109  
C609     C      0.897380000000     0.846890000000     0.601130000000    -0.0408773  
C610     C      0.946110000000     0.858460000000     0.557430000000    -0.0203304  
C611     C      0.869340000000     0.809380000000     0.567150000000     0.0156024  
C612     C      0.919400000000     0.841250000000     0.560540000000     0.0136939  
C613     C      0.842190000000     0.792780000000     0.569090000000    -0.0219019  
C614     C      0.916180000000     0.819540000000     0.523260000000    -0.0456816  
C615     C      0.891310000000     0.803750000000     0.526520000000    -0.0416489  
C616     C      0.872490000000     0.831130000000     0.604310000000    -0.0464359  
C617     C      0.879810000000     0.624530000000     0.536560000000    -0.0413708  
C618     C      0.916900000000     0.588100000000     0.544070000000    -0.0206732  
C619     C      0.828610000000     0.617310000000     0.557830000000     0.0213328  
C620     C      0.885720000000     0.597680000000     0.545440000000     0.0129499  
C621     C      0.798520000000     0.627950000000     0.568520000000    -0.0213726  
C622     C      0.862670000000     0.580760000000     0.560630000000    -0.0387198  
C623     C      0.834340000000     0.590430000000     0.565890000000    -0.0491194  
C624     C      0.851480000000     0.634270000000     0.542600000000    -0.0460753  
C625     C      0.650420000000     0.859970000000     0.915860000000    -0.0403552  
C626     C      0.697900000000     0.848210000000     0.964270000000    -0.0214938  
C627     C      0.617820000000     0.892860000000     0.956620000000     0.0174789  
C628     C      0.670610000000     0.864640000000     0.960590000000     0.0157282  
C629     C      0.589630000000     0.908040000000     0.954790000000    -0.0237481  
C630     C      0.664340000000     0.883710000000     0.502990000000    -0.0448787  
C631     C      0.638140000000     0.897740000000     0.501000000000    -0.0408253  
C632     C      0.624220000000     0.873960000000     0.913910000000    -0.0454901  
C633     C      0.928390000000     0.837570000000     0.832810000000    -0.0435352  
C634     C      0.972930000000     0.861900000000     0.797580000000    -0.0207097  
C635     C      0.899580000000     0.810250000000     0.767600000000     0.0147581  
C636     C      0.947690000000     0.843560000000     0.787300000000     0.0182984  
C637     C      0.874360000000     0.791820000000     0.756790000000    -0.0206783  
C638     C      0.942980000000     0.832510000000     0.732140000000    -0.041378   
C639     C      0.919350000000     0.815740000000     0.722620000000    -0.0455044  
C640     C      0.904620000000     0.820930000000     0.823160000000    -0.0417624  
H785     H      0.936830000000     0.511920000000     0.671180000000     0.196398   
H786     H      0.996290000000     0.943830000000     0.529730000000     0.188388   
H787     H      0.555780000000     0.525540000000     0.626400000000     0.194254   
H788     H      0.517820000000     0.947040000000     0.768900000000     0.193487   
H789     H      0.952100000000     0.959170000000     0.961900000000     0.131495   
H790     H      0.518430000000     0.996280000000     0.925300000000     0.198462   
H791     H      0.597950000000     0.983960000000     0.561770000000     0.138272   
H792     H      0.607610000000     0.508260000000     0.666110000000     0.190671   
H793     H      0.550170000000     0.502990000000     0.837740000000     0.142573   
H794     H      0.984660000000     0.960610000000     0.869780000000     0.188637   
H795     H      0.908810000000     0.959680000000     0.736980000000     0.141576   
H796     H      0.890120000000     0.989130000000     0.614450000000     0.1949     
H797     H      0.617340000000     0.984420000000     0.712440000000     0.20435    
H798     H      0.968390000000     0.989850000000     0.877980000000     0.207751   
H799     H      0.892940000000     0.956340000000     0.619230000000     0.19976    
H800     H      0.532560000000     0.965890000000     0.925510000000     0.198841   
H801     H      0.804330000000     0.679350000000     0.885150000000     0.197876   
H802     H      0.769280000000     0.762290000000     0.751660000000     0.188987   
H803     H      0.685950000000     0.697980000000     0.843750000000     0.194476   
H804     H      0.748000000000     0.760500000000     0.991270000000     0.192779   
H805     H      0.808250000000     0.741590000000     0.684360000000     0.132155   
H806     H      0.730510000000     0.717100000000     0.645120000000     0.200829   
H807     H      0.659920000000     0.753290000000     0.782030000000     0.137132   
H808     H      0.643090000000     0.729260000000     0.882110000000     0.188734   
H809     H      0.699960000000     0.714320000000     0.556710000000     0.14196    
H810     H      0.775900000000     0.736550000000     0.589660000000     0.195114   
H811     H      0.848100000000     0.719040000000     0.954750000000     0.136226   
H812     H      0.858270000000     0.700560000000     0.847940000000     0.186963   
H813     H      0.639480000000     0.748110000000     0.941400000000     0.203424   
H814     H      0.777230000000     0.703640000000     0.593350000000     0.209084   
H815     H      0.865800000000     0.711330000000     0.780770000000     0.200462   
H816     H      0.728790000000     0.750040000000     0.645240000000     0.198506   
H817     H      0.689170000000     0.628710000000     0.713490000000     0.101257   
H818     H      0.547620000000     0.615210000000     0.777820000000     0.0330085  
H819     H      0.539760000000     0.606770000000     0.704150000000     0.048668   
H820     H      0.631510000000     0.667310000000     0.758950000000     0.0404928  
H821     H      0.586570000000     0.645890000000     0.791620000000     0.0352921  
H822     H      0.671310000000     0.648840000000     0.619490000000     0.036468   
H823     H      0.586870000000     0.597250000000     0.637580000000     0.041221   
H824     H      0.632050000000     0.618520000000     0.605130000000     0.0382515  
H825     H      0.661600000000     0.677920000000     0.659490000000     0.0512559  
H826     H      0.581690000000     0.575270000000     0.781780000000     0.0993818  
H827     H      0.647960000000     0.653780000000     0.500960000000     0.0975619  
H828     H      0.538090000000     0.581810000000     0.898900000000     0.0350239  
H829     H      0.552920000000     0.550920000000     0.920330000000     0.0472293  
H830     H      0.623200000000     0.631920000000     0.884340000000     0.0407593  
H831     H      0.574660000000     0.612550000000     0.872680000000     0.0365696  
H832     H      0.677560000000     0.609400000000     0.999430000000     0.0370851  
H833     H      0.592930000000     0.557970000000     0.511920000000     0.0478785  
H834     H      0.641150000000     0.577780000000     0.524650000000     0.0370087  
H835     H      0.677730000000     0.613740000000     0.921750000000     0.0509427  
H836     H      0.526490000000     0.593010000000     0.999880000000     0.0997644  
H837     H      0.606690000000     0.910370000000     0.780090000000     0.0980682  
H838     H      0.689400000000     0.803220000000     0.664090000000     0.0472856  
H839     H      0.704750000000     0.833780000000     0.641820000000     0.0329158  
H840     H      0.612940000000     0.831760000000     0.798780000000     0.0358397  
H841     H      0.658180000000     0.810030000000     0.768830000000     0.0445958  
H842     H      0.570390000000     0.869360000000     0.714590000000     0.0501684  
H843     H      0.668620000000     0.866830000000     0.630820000000     0.0372146  
H844     H      0.623070000000     0.888240000000     0.659870000000     0.044642   
H845     H      0.577980000000     0.866610000000     0.790740000000     0.0325605  
H846     H      0.724270000000     0.841450000000     0.740250000000     0.100077   
H847     H      0.802510000000     0.610060000000     0.765890000000     0.101308   
H848     H      0.962300000000     0.597640000000     0.768250000000     0.0477385  
H849     H      0.951480000000     0.602210000000     0.842030000000     0.0331607  
H850     H      0.863530000000     0.585030000000     0.681940000000     0.0402802  
H851     H      0.910670000000     0.569820000000     0.716550000000     0.0446313  
H852     H      0.837760000000     0.650240000000     0.696440000000     0.0488695  
H853     H      0.914580000000     0.635440000000     0.836000000000     0.0356343  
H854     H      0.867690000000     0.651400000000     0.798680000000     0.0421485  
H855     H      0.827460000000     0.617820000000     0.674650000000     0.0352913  
H856     H      0.935410000000     0.557070000000     0.850080000000     0.100907   
H857     H      0.819960000000     0.821040000000     0.514430000000     0.101315   
H858     H      0.958010000000     0.856570000000     0.599320000000     0.0460065  
H859     H      0.961000000000     0.851940000000     0.522090000000     0.034965   
H860     H      0.855740000000     0.835900000000     0.635770000000     0.0388409  
H861     H      0.899520000000     0.863480000000     0.630460000000     0.0440651  
H862     H      0.848540000000     0.771740000000     0.564370000000     0.0460349  
H863     H      0.932830000000     0.814860000000     0.991490000000     0.0360705  
H864     H      0.889100000000     0.787210000000     0.997060000000     0.0407027  
H865     H      0.830660000000     0.795190000000     0.611300000000     0.0313046  
H866     H      0.920080000000     0.889340000000     0.518570000000     0.0993609  
H867     H      0.774320000000     0.609290000000     0.999740000000     0.10114    
H868     H      0.929440000000     0.599130000000     0.510610000000     0.037605   
H869     H      0.926680000000     0.592440000000     0.587290000000     0.0481107  
H870     H      0.847500000000     0.655110000000     0.536490000000     0.0537514  
H871     H      0.897250000000     0.638060000000     0.525980000000     0.0375606  
H872     H      0.786880000000     0.615470000000     0.600760000000     0.0340381  
H873     H      0.866490000000     0.560120000000     0.569710000000     0.0389391  
H874     H      0.817020000000     0.577060000000     0.578150000000     0.0380757  
H875     H      0.799670000000     0.648150000000     0.587120000000     0.0449655  
H876     H      0.905770000000     0.552900000000     0.995940000000     0.100679   
H877     H      0.569440000000     0.881270000000     0.516020000000     0.0999835  
H878     H      0.709610000000     0.849810000000     0.922050000000     0.0493789  
H879     H      0.712710000000     0.855550000000     0.998910000000     0.036459   
H880     H      0.608890000000     0.869910000000     0.879290000000     0.0368842  
H881     H      0.654820000000     0.845240000000     0.882920000000     0.0428926  
H882     H      0.595190000000     0.929360000000     0.955050000000     0.0493927  
H883     H      0.679640000000     0.887690000000     0.537740000000     0.0357249  
H884     H      0.633640000000     0.912310000000     0.534240000000     0.0418377  
H885     H      0.577230000000     0.903840000000     0.914280000000     0.0343598  
H886     H      0.672800000000     0.817350000000     0.505520000000     0.0990811  
H887     H      0.844450000000     0.821260000000     0.791210000000     0.100714   
H888     H      0.984150000000     0.856210000000     0.838570000000     0.031679   
H889     H      0.989380000000     0.859930000000     0.762340000000     0.0463514  
H890     H      0.890210000000     0.816390000000     0.859100000000     0.0438769  
H891     H      0.931750000000     0.845760000000     0.875840000000     0.0374528  
H892     H      0.870230000000     0.789370000000     0.709410000000     0.0346555  
H893     H      0.957750000000     0.836650000000     0.696590000000     0.0409748  
H894     H      0.916620000000     0.806870000000     0.680130000000     0.0403781  
H895     H      0.880790000000     0.772290000000     0.774590000000     0.0425806  
H896     H      0.948630000000     0.893130000000     0.838480000000     0.0971101  
N113     N      0.685820000000     0.648850000000     0.706490000000    -0.212206   
N114     N      0.564420000000     0.578290000000     0.752790000000    -0.21332    
N115     N      0.663500000000     0.646850000000     0.971360000000    -0.213281   
N116     N      0.533800000000     0.574200000000     0.988380000000    -0.212814   
N117     N      0.589620000000     0.903280000000     0.754300000000    -0.212993   
N118     N      0.715570000000     0.823290000000     0.727590000000    -0.213497   
N119     N      0.810690000000     0.628680000000     0.755370000000    -0.212752   
N120     N      0.945500000000     0.563590000000     0.811900000000    -0.213042   
N121     N      0.822580000000     0.800840000000     0.521960000000    -0.213444   
N122     N      0.937630000000     0.885850000000     0.546590000000    -0.214136   
N123     N      0.781970000000     0.627560000000     0.514220000000    -0.213077   
N124     N      0.918550000000     0.559920000000     0.530310000000    -0.213469   
N125     N      0.571440000000     0.901200000000     0.505160000000    -0.213488   
N126     N      0.690150000000     0.820800000000     0.976950000000    -0.213025   
N127     N      0.847540000000     0.801020000000     0.785210000000    -0.214296   
N128     N      0.962390000000     0.889030000000     0.803300000000    -0.212517   
O449     O      0.961130000000     0.932410000000     0.781820000000    -0.385049   
O450     O      0.987480000000     0.904530000000     0.724890000000    -0.373805   
O451     O      0.933550000000     0.518120000000     0.545210000000    -0.376201   
O452     O      0.954260000000     0.551550000000     0.596520000000    -0.37541    
O453     O      0.941370000000     0.929840000000     0.557780000000    -0.388319   
O454     O      0.975040000000     0.902930000000     0.599580000000    -0.37637    
O455     O      0.954510000000     0.521040000000     0.789300000000    -0.380181   
O456     O      0.968580000000     0.553480000000     0.727100000000    -0.376365   
O457     O      0.914540000000     0.975050000000     0.760880000000    -0.346693   
O458     O      0.974940000000     0.975710000000     0.853080000000    -0.527473   
O459     O      0.901550000000     0.973240000000     0.610510000000    -0.529364   
O460     O      0.937780000000     0.971650000000     0.978530000000    -0.336063   
O461     O      0.962430000000     0.951280000000     0.665350000000    -0.500531   
O462     O      0.954770000000     0.502360000000     0.665120000000    -0.632299   
O463     O      0.560850000000     0.534030000000     0.743600000000    -0.383921   
O464     O      0.528480000000     0.560660000000     0.697070000000    -0.376825   
O465     O      0.557090000000     0.943490000000     0.520430000000    -0.386256   
O466     O      0.539590000000     0.910500000000     0.577540000000    -0.37598    
O467     O      0.537310000000     0.530620000000     0.510600000000    -0.378281   
O468     O      0.513620000000     0.558800000000     0.571320000000    -0.374729   
O469     O      0.575000000000     0.945510000000     0.741110000000    -0.378794   
O470     O      0.548970000000     0.911900000000     0.701330000000    -0.375004   
O471     O      0.602350000000     0.994840000000     0.693980000000    -0.530484   
O472     O      0.561860000000     0.988140000000     0.822440000000    -0.352506   
O473     O      0.587630000000     0.995310000000     0.533440000000    -0.349239   
O474     O      0.527250000000     0.981790000000     0.946070000000    -0.531049   
O475     O      0.541080000000     0.512270000000     0.633050000000    -0.632711   
O476     O      0.548230000000     0.961450000000     0.633640000000    -0.497761   
O477     O      0.506020000000     0.507950000000     0.735100000000    -0.499382   
O478     O      0.997520000000     0.955500000000     0.562840000000    -0.631873   
O479     O      0.513230000000     0.957820000000     0.735510000000    -0.630738   
O480     O      0.990300000000     0.505750000000     0.563220000000    -0.49772    
O481     O      0.808350000000     0.758960000000     0.500860000000    -0.383624   
O482     O      0.790760000000     0.793630000000     0.948820000000    -0.376955   
O483     O      0.808990000000     0.673090000000     0.768560000000    -0.376452   
O484     O      0.775670000000     0.646430000000     0.811980000000    -0.375598   
O485     O      0.828770000000     0.759710000000     0.788530000000    -0.386197   
O486     O      0.803530000000     0.794130000000     0.827050000000    -0.373912   
O487     O      0.786450000000     0.671690000000     0.998830000000    -0.379839   
O488     O      0.761550000000     0.645920000000     0.934920000000    -0.3751     
O489     O      0.837590000000     0.706950000000     0.981210000000    -0.351393   
O490     O      0.778070000000     0.719670000000     0.570750000000    -0.530154   
O491     O      0.851920000000     0.708280000000     0.811650000000    -0.521801   
O492     O      0.808390000000     0.722450000000     0.692580000000    -0.352916   
O493     O      0.798930000000     0.743310000000     0.885000000000    -0.498862   
O494     O      0.790070000000     0.693160000000     0.880250000000    -0.635564   
O495     O      0.679310000000     0.688820000000     0.961500000000    -0.384974   
O496     O      0.702340000000     0.655680000000     0.913290000000    -0.375145   
O497     O      0.712730000000     0.778980000000     0.741890000000    -0.385017   
O498     O      0.740900000000     0.804430000000     0.800820000000    -0.37732    
O499     O      0.697640000000     0.691070000000     0.730520000000    -0.377711   
O500     O      0.714930000000     0.656630000000     0.783680000000    -0.376211   
O501     O      0.693290000000     0.776820000000     0.964640000000    -0.381056   
O502     O      0.727330000000     0.803580000000     0.923500000000    -0.372309   
O503     O      0.651500000000     0.737490000000     0.916080000000    -0.526657   
O504     O      0.693300000000     0.731770000000     0.542810000000    -0.349494   
O505     O      0.665460000000     0.740130000000     0.752200000000    -0.345099   
O506     O      0.727600000000     0.733460000000     0.665740000000    -0.528392   
O507     O      0.704340000000     0.706710000000     0.850450000000    -0.634464   
O508     O      0.713770000000     0.756990000000     0.855810000000    -0.499774   
O509     O      0.739650000000     0.699390000000     0.951590000000    -0.500391   
O510     O      0.764140000000     0.750830000000     0.783580000000    -0.630711   
O511     O      0.748830000000     0.749520000000     0.956970000000    -0.630419   
O512     O      0.754720000000     0.700650000000     0.778380000000    -0.497277   
Zr85     Zr     0.967150000000     0.977920000000     0.749570000000     1.37782    
Zr86     Zr     0.951730000000     0.975820000000     0.580270000000     1.3743     
Zr87     Zr     0.551900000000     0.987840000000     0.718430000000     1.37286    
Zr88     Zr     0.536270000000     0.985740000000     0.548880000000     1.37766    
Zr89     Zr     0.508880000000     0.931820000000     0.649530000000     1.37479    
Zr90     Zr     0.994450000000     0.531660000000     0.648890000000     1.37724    
Zr91     Zr     0.786410000000     0.717770000000     0.967460000000     1.37939    
Zr92     Zr     0.801280000000     0.718880000000     0.797250000000     1.37712    
Zr93     Zr     0.702270000000     0.731000000000     0.938460000000     1.37831    
Zr94     Zr     0.717170000000     0.732490000000     0.768300000000     1.37805    
Zr95     Zr     0.760970000000     0.774700000000     0.872720000000     1.37579    
Zr96     Zr     0.742780000000     0.675710000000     0.862530000000     1.3826     


