data_structure

_audit_creation_method RASPA-1.0
_audit_creation_date 2023-6-4
_audit_author_name 'Poobodin Mano'

_cell_length_a    29.3074
_cell_length_b    32.647
_cell_length_c    37.2953
_cell_angle_alpha 82.7656
_cell_angle_beta  96.317
_cell_angle_gamma 119.439
_cell_volume      30781.3

_symmetry_cell_setting          triclinic
_symmetry_space_group_name_Hall 'P 1'
_symmetry_space_group_name_H-M  'P 1'
_symmetry_Int_Tables_number     1

_symmetry_equiv_pos_as_xyz 'x,y,z'

loop_
_atom_site_label
_atom_site_type_symbol
_atom_site_fract_x
_atom_site_fract_y
_atom_site_fract_z
_atom_site_charge
C1       C      0.264890000000     0.152550000000     0.021220000000     0.404739   
C2       C      0.054010000000     0.024190000000     0.849950000000     0.405237   
C3       C      0.144600000000     0.188590000000     0.978170000000     0.40377    
C4       C      0.187450000000     0.977820000000     0.903490000000     0.405376   
C5       C      0.074320000000     0.869860000000     0.973850000000     0.406665   
C6       C      0.023700000000     0.046170000000     0.071360000000     0.402775   
C7       C      0.941070000000     0.902520000000     0.931430000000     0.404026   
C8       C      0.155410000000     0.031400000000     0.103740000000     0.402322   
C9       C      0.130240000000     0.952430000000     0.403920000000     0.406775   
C10      C      0.974790000000     0.090010000000     0.440250000000     0.404816   
C11      C      0.174150000000     0.089120000000     0.356750000000     0.406933   
C12      C      0.934800000000     0.945460000000     0.500010000000     0.402803   
C13      C      0.051770000000     0.014940000000     0.596440000000     0.401416   
C14      C      0.296680000000     0.163070000000     0.458780000000     0.400307   
C15      C      0.097590000000     0.162700000000     0.542750000000     0.403408   
C16      C      0.260420000000     0.028170000000     0.513690000000     0.405343   
C17      C      0.240760000000     0.496990000000     0.988720000000     0.404832   
C18      C      0.952860000000     0.441050000000     0.049510000000     0.405613   
C19      C      0.085820000000     0.413510000000     0.920070000000     0.402749   
C20      C      0.111120000000     0.538850000000     0.112600000000     0.403379   
C21      C      0.117130000000     0.672720000000     0.036240000000     0.402207   
C22      C      0.101830000000     0.544160000000     0.853860000000     0.403438   
C23      C      0.962790000000     0.574180000000     0.979360000000     0.406215   
C24      C      0.255110000000     0.641690000000     0.912980000000     0.408146   
C25      C      0.186040000000     0.465890000000     0.522370000000     0.408401   
C26      C      0.986220000000     0.570020000000     0.558150000000     0.405689   
C27      C      0.018470000000     0.415130000000     0.465940000000     0.40257    
C28      C      0.172620000000     0.633730000000     0.612200000000     0.408412   
C29      C      0.226600000000     0.738320000000     0.520490000000     0.402941   
C30      C      0.090930000000     0.534720000000     0.371490000000     0.404601   
C31      C      0.042040000000     0.675780000000     0.469780000000     0.404397   
C32      C      0.256180000000     0.585800000000     0.425280000000     0.405448   
C33      C      0.495950000000     0.115090000000     0.965820000000     0.407084   
C34      C      0.618270000000     0.954910000000     0.899320000000     0.407801   
C35      C      0.425910000000     0.944890000000     0.998220000000     0.399845   
C36      C      0.687620000000     0.118420000000     0.870740000000     0.405286   
C37      C      0.797650000000     0.146130000000     0.978040000000     0.402414   
C38      C      0.544170000000     0.987680000000     0.103210000000     0.403998   
C39      C      0.729630000000     0.985000000000     0.003320000000     0.406705   
C40      C      0.601560000000     0.140480000000     0.072180000000     0.406039   
C41      C      0.737080000000     0.226590000000     0.462650000000     0.405346   
C42      C      0.442260000000     0.984460000000     0.432530000000     0.403878   
C43      C      0.586750000000     0.180130000000     0.530660000000     0.403413   
C44      C      0.592420000000     0.032240000000     0.362200000000     0.401989   
C45      C      0.647150000000     0.945100000000     0.447200000000     0.404261   
C46      C      0.644490000000     0.090860000000     0.613910000000     0.40309    
C47      C      0.492760000000     0.898150000000     0.511860000000     0.40568    
C48      C      0.785530000000     0.134760000000     0.551230000000     0.405878   
C49      C      0.533210000000     0.381360000000     0.031020000000     0.404572   
C50      C      0.507380000000     0.628790000000     0.021560000000     0.407953   
C51      C      0.443720000000     0.429850000000     0.934380000000     0.404184   
C52      C      0.587320000000     0.578900000000     0.116570000000     0.404158   
C53      C      0.748500000000     0.663390000000     0.058450000000     0.407425   
C54      C      0.604830000000     0.513400000000     0.876480000000     0.406006   
C55      C      0.672820000000     0.712920000000     0.963400000000     0.402327   
C56      C      0.688760000000     0.470880000000     0.963760000000     0.408377   
C57      C      0.614660000000     0.419630000000     0.475640000000     0.407836   
C58      C      0.464100000000     0.544820000000     0.555120000000     0.406566   
C59      C      0.498640000000     0.447230000000     0.411930000000     0.405814   
C60      C      0.590270000000     0.514540000000     0.624410000000     0.40539    
C61      C      0.722500000000     0.661050000000     0.587220000000     0.406587   
C62      C      0.646030000000     0.610750000000     0.372830000000     0.407302   
C63      C      0.595270000000     0.694490000000     0.517790000000     0.403235   
C64      C      0.754930000000     0.581040000000     0.435810000000     0.409861   
C65      C      0.541120000000     0.442960000000     0.774000000000    -0.0424441  
C66      C      0.593390000000     0.456360000000     0.833880000000    -0.0188968  
C67      C      0.582370000000     0.455960000000     0.717590000000     0.0144398  
C68      C      0.589070000000     0.454440000000     0.793500000000     0.0136451  
C69      C      0.578720000000     0.456850000000     0.676960000000    -0.019466   
C70      C      0.633830000000     0.467460000000     0.774750000000    -0.0432586  
C71      C      0.630490000000     0.468120000000     0.737050000000    -0.0423171  
C72      C      0.537740000000     0.443500000000     0.736310000000    -0.0437402  
C73      C      0.594300000000     0.572280000000     0.279710000000    -0.0387282  
C74      C      0.680570000000     0.604680000000     0.316760000000    -0.02147    
C75      C      0.590780000000     0.567670000000     0.214870000000     0.01578    
C76      C      0.649320000000     0.593600000000     0.281120000000     0.0172779  
C77      C      0.559340000000     0.551920000000     0.179760000000    -0.0213694  
C78      C      0.674690000000     0.600880000000     0.249260000000    -0.046194   
C79      C      0.645680000000     0.587900000000     0.216440000000    -0.0401497  
C80      C      0.565310000000     0.559780000000     0.246800000000    -0.0465497  
C81      C      0.571880000000     0.810580000000     0.568550000000    -0.0431995  
C82      C      0.588180000000     0.743120000000     0.560780000000    -0.021245   
C83      C      0.484770000000     0.802770000000     0.557530000000     0.024134   
C84      C      0.552300000000     0.764000000000     0.559930000000     0.0150551  
C85      C      0.449870000000     0.825020000000     0.553070000000    -0.0233114  
C86      C      0.498630000000     0.736770000000     0.550440000000    -0.0377794  
C87      C      0.465140000000     0.756090000000     0.549080000000    -0.047768   
C88      C      0.538320000000     0.829760000000     0.567450000000    -0.0456871  
C89      C      0.731760000000     0.333020000000     0.516240000000    -0.0441293  
C90      C      0.781650000000     0.308050000000     0.481410000000    -0.0209774  
C91      C      0.648960000000     0.328610000000     0.492650000000     0.0167967  
C92      C      0.734440000000     0.314000000000     0.485280000000     0.0256829  
C93      C      0.605520000000     0.339980000000     0.494670000000    -0.0213804  
C94      C      0.694060000000     0.302890000000     0.457840000000    -0.0389629  
C95      C      0.651310000000     0.309240000000     0.461880000000    -0.0421779  
C96      C      0.689440000000     0.340420000000     0.519870000000    -0.0413781  
C97      C      0.742100000000     0.173390000000     0.758350000000    -0.0434923  
C98      C      0.698370000000     0.170680000000     0.813930000000    -0.0206433  
C99      C      0.692610000000     0.149110000000     0.701000000000     0.0135118  
C100     C      0.695960000000     0.161660000000     0.774890000000     0.0164938  
C101     C      0.691660000000     0.146830000000     0.660730000000    -0.0201519  
C102     C      0.647920000000     0.142500000000     0.754410000000    -0.0442624  
C103     C      0.646340000000     0.136700000000     0.717690000000    -0.0413798  
C104     C      0.740440000000     0.167130000000     0.721740000000    -0.0433277  
C105     C      0.594070000000     0.978990000000     0.222690000000    -0.0439269  
C106     C      0.544670000000     0.946140000000     0.163860000000    -0.0223978  
C107     C      0.548060000000     0.972740000000     0.275320000000     0.0142402  
C108     C      0.546250000000     0.957800000000     0.202090000000     0.0175227  
C109     C      0.548120000000     0.975560000000     0.315490000000    -0.0210476  
C110     C      0.499510000000     0.945140000000     0.218210000000    -0.0430416  
C111     C      0.500410000000     0.952680000000     0.254430000000    -0.0433908  
C112     C      0.594910000000     0.986000000000     0.259070000000    -0.0414607  
C113     C      0.637070000000     0.847730000000     0.904730000000    -0.0415336  
C114     C      0.669180000000     0.927490000000     0.870080000000    -0.0194743  
C115     C      0.691680000000     0.831530000000     0.951710000000     0.0161254  
C116     C      0.677080000000     0.894650000000     0.899160000000     0.0216141  
C117     C      0.700850000000     0.795610000000     0.976240000000    -0.0220886  
C118     C      0.724270000000     0.909980000000     0.920530000000    -0.0403813  
C119     C      0.731610000000     0.878550000000     0.946540000000    -0.0446641  
C120     C      0.644070000000     0.816660000000     0.931030000000    -0.0411283  
C121     C      0.539920000000     0.257990000000     0.115630000000    -0.0454292  
C122     C      0.515690000000     0.314560000000     0.077950000000    -0.0222354  
C123     C      0.608560000000     0.243070000000     0.100050000000     0.0172811  
C124     C      0.549260000000     0.290690000000     0.085310000000     0.0143416  
C125     C      0.634930000000     0.212840000000     0.105460000000    -0.0219571  
C126     C      0.590890000000     0.301470000000     0.063640000000    -0.0400801  
C127     C      0.619680000000     0.277280000000     0.070640000000    -0.0446732  
C128     C      0.569390000000     0.234580000000     0.123030000000    -0.0424104  
C129     C      0.880110000000     0.282780000000     0.550670000000    -0.0426242  
C130     C      0.858990000000     0.202490000000     0.581490000000    -0.0189071  
C131     C      0.918490000000     0.309670000000     0.492030000000     0.0244652  
C132     C      0.880810000000     0.240100000000     0.550480000000     0.0201517  
C133     C      0.931590000000     0.343560000000     0.458610000000    -0.0209394  
C134     C      0.903940000000     0.233980000000     0.521900000000    -0.0397419  
C135     C      0.921980000000     0.268230000000     0.492710000000    -0.0449645  
C136     C      0.898990000000     0.317360000000     0.521750000000    -0.0457356  
C137     C      0.307470000000     0.898980000000     0.517370000000    -0.0414055  
C138     C      0.237120000000     0.815610000000     0.534080000000    -0.0215256  
C139     C      0.316670000000     0.931760000000     0.454650000000     0.0240745  
C140     C      0.261100000000     0.858530000000     0.507520000000     0.0152925  
C141     C      0.349320000000     0.968490000000     0.425970000000    -0.0234862  
C142     C      0.241980000000     0.855600000000     0.471180000000    -0.0395176  
C143     C      0.269490000000     0.891940000000     0.444960000000    -0.0458643  
C144     C      0.334870000000     0.935420000000     0.491170000000    -0.0422983  
C145     C      0.801100000000     0.502840000000     0.478570000000    -0.0434638  
C146     C      0.806480000000     0.547710000000     0.417080000000    -0.0236302  
C147     C      0.871170000000     0.536740000000     0.525360000000     0.0258143  
C148     C      0.830850000000     0.539920000000     0.453260000000     0.0174359  
C149     C      0.890660000000     0.534650000000     0.564690000000    -0.016917   
C150     C      0.881100000000     0.574790000000     0.464050000000    -0.0457157  
C151     C      0.900630000000     0.573890000000     0.499770000000    -0.034646   
C152     C      0.821420000000     0.500970000000     0.514160000000    -0.0426911  
C153     C      0.365640000000     0.565720000000     0.509670000000    -0.0420162  
C154     C      0.368140000000     0.509260000000     0.561900000000    -0.0183433  
C155     C      0.323910000000     0.538290000000     0.450820000000     0.0236222  
C156     C      0.353580000000     0.519590000000     0.523010000000     0.0254256  
C157     C      0.306480000000     0.547570000000     0.412270000000    -0.0212567  
C158     C      0.327050000000     0.483010000000     0.499940000000    -0.0405003  
C159     C      0.311980000000     0.492190000000     0.464260000000    -0.0449287  
C160     C      0.351920000000     0.575150000000     0.473760000000    -0.0430815  
C161     C      0.211480000000     0.635340000000     0.736490000000    -0.0454381  
C162     C      0.227610000000     0.645720000000     0.669950000000    -0.0192448  
C163     C      0.152560000000     0.558630000000     0.765540000000     0.0164437  
C164     C      0.200450000000     0.615800000000     0.703080000000     0.0187316  
C165     C      0.130340000000     0.527580000000     0.799520000000    -0.0220015  
C166     C      0.164430000000     0.567700000000     0.700980000000    -0.0426214  
C167     C      0.140650000000     0.539310000000     0.731980000000    -0.0441516  
C168     C      0.187940000000     0.606910000000     0.767520000000    -0.0399091  
C169     C      0.166300000000     0.553550000000     0.237750000000    -0.0437098  
C170     C      0.150260000000     0.530360000000     0.173410000000    -0.0201402  
C171     C      0.109780000000     0.501240000000     0.285360000000     0.0152754  
C172     C      0.135600000000     0.520880000000     0.212290000000     0.0139747  
C173     C      0.097520000000     0.490210000000     0.324780000000    -0.0213678  
C174     C      0.091410000000     0.478660000000     0.223540000000    -0.0415028  
C175     C      0.078560000000     0.468920000000     0.259780000000    -0.045218   
C176     C      0.153610000000     0.543710000000     0.274020000000    -0.0416497  
C177     C      0.974230000000     0.253790000000     0.969800000000    -0.0453816  
C178     C      0.884710000000     0.213270000000     0.995860000000    -0.0207041  
C179     C      0.994120000000     0.312260000000     0.918270000000     0.0269436  
C180     C      0.924870000000     0.250670000000     0.971200000000     0.0132808  
C181     C      0.028200000000     0.341360000000     0.887360000000    -0.0194906  
C182     C      0.910850000000     0.279150000000     0.946370000000    -0.0368578  
C183     C      0.945170000000     0.309680000000     0.920150000000    -0.0377107  
C184     C      0.008750000000     0.284560000000     0.943600000000    -0.0405953  
C185     C      0.279990000000     0.814200000000     0.033720000000    -0.0453628  
C186     C      0.347080000000     0.868270000000     0.988290000000    -0.0201673  
C187     C      0.186280000000     0.782300000000     0.019070000000     0.0269115  
C188     C      0.291150000000     0.839330000000     0.999460000000     0.00926785 
C189     C      0.129860000000     0.754480000000     0.029540000000    -0.0195689  
C190     C      0.249550000000     0.836450000000     0.975420000000    -0.0449698  
C191     C      0.197690000000     0.808160000000     0.985100000000    -0.0471846  
C192     C      0.227940000000     0.786040000000     0.043530000000    -0.040874   
C193     C      0.792280000000     0.417090000000     0.992410000000    -0.0414755  
C194     C      0.772050000000     0.474200000000     0.951390000000    -0.0165917  
C195     C      0.845000000000     0.440090000000     0.048820000000     0.0237247  
C196     C      0.794470000000     0.461280000000     0.986420000000     0.0206833  
C197     C      0.876420000000     0.430390000000     0.080310000000    -0.0195157  
C198     C      0.819050000000     0.493560000000     0.012970000000    -0.0339612  
C199     C      0.844730000000     0.483330000000     0.043740000000    -0.0401645  
C200     C      0.816990000000     0.406420000000     0.023490000000    -0.0398831  
C201     C      0.376400000000     0.599110000000     0.968260000000    -0.0347194  
C202     C      0.425770000000     0.632350000000     0.026670000000    -0.0152795  
C203     C      0.364210000000     0.649250000000     0.918650000000     0.0199575  
C204     C      0.407510000000     0.638520000000     0.988050000000     0.0192024  
C205     C      0.333970000000     0.654480000000     0.884600000000    -0.0205481  
C206     C      0.419220000000     0.683630000000     0.972110000000    -0.0403831  
C207     C      0.397830000000     0.688980000000     0.937610000000    -0.0424135  
C208     C      0.354660000000     0.604380000000     0.933870000000    -0.0390174  
C209     C      0.829060000000     0.800000000000     0.591060000000    -0.045604   
C210     C      0.748530000000     0.732070000000     0.618380000000    -0.0235236  
C211     C      0.825670000000     0.834310000000     0.529720000000     0.0131945  
C212     C      0.774320000000     0.771220000000     0.589140000000     0.0178746  
C213     C      0.853930000000     0.866650000000     0.497610000000    -0.02236    
C214     C      0.745380000000     0.774530000000     0.557340000000    -0.0481833  
C215     C      0.770800000000     0.806060000000     0.527940000000    -0.0509362  
C216     C      0.854500000000     0.831260000000     0.561630000000    -0.041063   
C217     C      0.483800000000     0.321890000000     0.409350000000    -0.0441803  
C218     C      0.485280000000     0.389960000000     0.367880000000    -0.0221806  
C219     C      0.409310000000     0.242630000000     0.407860000000     0.0132603  
C220     C      0.460810000000     0.338000000000     0.379970000000     0.0186622  
C221     C      0.378580000000     0.193360000000     0.425710000000    -0.0223627  
C222     C      0.412080000000     0.305910000000     0.364420000000    -0.0465001  
C223     C      0.386590000000     0.258620000000     0.378210000000    -0.0415393  
C224     C      0.458420000000     0.274550000000     0.423090000000    -0.0427704  
C225     C      0.815580000000     0.025550000000     0.417000000000    -0.0422278  
C226     C      0.891550000000     0.087040000000     0.452840000000    -0.0208675  
C227     C      0.753350000000     0.950110000000     0.446160000000     0.0276361  
C228     C      0.846300000000     0.037690000000     0.449620000000     0.0304897  
C229     C      0.701170000000     0.904940000000     0.445530000000    -0.0194034  
C230     C      0.831580000000     0.004660000000     0.479940000000    -0.0416399  
C231     C      0.785580000000     0.961240000000     0.478210000000    -0.0391458  
C232     C      0.769490000000     0.982100000000     0.415280000000    -0.0386542  
C233     C      0.434080000000     0.165290000000     0.524060000000    -0.0414464  
C234     C      0.530890000000     0.216760000000     0.536620000000    -0.0180341  
C235     C      0.384300000000     0.087510000000     0.555340000000     0.0218374  
C236     C      0.480020000000     0.171830000000     0.544430000000     0.0264354  
C237     C      0.334240000000     0.040660000000     0.559210000000    -0.0195934  
C238     C      0.476830000000     0.137310000000     0.572280000000    -0.0345234  
C239     C      0.429490000000     0.095310000000     0.577410000000    -0.0442765  
C240     C      0.386720000000     0.123760000000     0.529490000000    -0.0334088  
C241     C      0.992240000000     0.783910000000     0.412990000000    -0.0435576  
C242     C      0.986700000000     0.704500000000     0.431160000000    -0.020318   
C243     C      0.064240000000     0.845680000000     0.378860000000     0.0226271  
C244     C      0.013870000000     0.753860000000     0.413330000000     0.0165444  
C245     C      0.089220000000     0.893440000000     0.358190000000    -0.0192749  
C246     C      0.061610000000     0.770490000000     0.397190000000    -0.0414319  
C247     C      0.086670000000     0.816130000000     0.380120000000    -0.0450436  
C248     C      0.017100000000     0.829390000000     0.395710000000    -0.046466   
C249     C      0.119310000000     0.315120000000     0.493800000000    -0.0449154  
C250     C      0.191350000000     0.396310000000     0.507060000000    -0.0191784  
C251     C      0.074140000000     0.255460000000     0.542170000000     0.0171367  
C252     C      0.144900000000     0.349600000000     0.518770000000     0.0196224  
C253     C      0.050420000000     0.204260000000     0.556260000000    -0.0225618  
C254     C      0.132120000000     0.336910000000     0.555290000000    -0.0395238  
C255     C      0.096760000000     0.290400000000     0.566760000000    -0.0450154  
C256     C      0.084230000000     0.268460000000     0.505380000000    -0.0418267  
C257     C      0.061670000000     0.074120000000     0.727940000000    -0.0436829  
C258     C      0.032320000000     0.058800000000     0.791920000000    -0.0190145  
C259     C      0.004100000000     0.026650000000     0.679920000000     0.013899   
C260     C      0.022140000000     0.048790000000     0.752580000000     0.0131615  
C261     C      0.994640000000     0.015120000000     0.640950000000    -0.0209166  
C262     C      0.973510000000     0.012380000000     0.740590000000    -0.0420823  
C263     C      0.964550000000     0.001370000000     0.704550000000    -0.0443119  
C264     C      0.052550000000     0.063430000000     0.691830000000    -0.0414154  
C265     C      0.146870000000     0.062820000000     0.200260000000    -0.0402747  
C266     C      0.211410000000     0.081840000000     0.152410000000    -0.0232215  
C267     C      0.176480000000     0.101530000000     0.256380000000     0.0140727  
C268     C      0.198860000000     0.085040000000     0.189710000000     0.0188209  
C269     C      0.164770000000     0.111780000000     0.291560000000    -0.0192313  
C270     C      0.239310000000     0.116020000000     0.212590000000    -0.0467293  
C271     C      0.228240000000     0.124280000000     0.245550000000    -0.0410008  
C272     C      0.135870000000     0.070550000000     0.233560000000    -0.0426847  
C273     C      0.848560000000     0.824380000000     0.003660000000    -0.0495763  
C274     C      0.846300000000     0.844710000000     0.936180000000    -0.0203261  
C275     C      0.848900000000     0.752280000000     0.029170000000     0.0150138  
C276     C      0.846450000000     0.812200000000     0.968570000000     0.0241434  
C277     C      0.843830000000     0.718090000000     0.061630000000    -0.0202255  
C278     C      0.846080000000     0.769980000000     0.963950000000    -0.0468664  
C279     C      0.846970000000     0.740080000000     0.994040000000    -0.0437133  
C280     C      0.850070000000     0.794840000000     0.033720000000    -0.0417487  
C281     C      0.330290000000     0.259240000000     0.973710000000    -0.0390264  
C282     C      0.360420000000     0.208140000000     0.016730000000    -0.0184911  
C283     C      0.388920000000     0.318030000000     0.929800000000     0.0222249  
C284     C      0.368540000000     0.245580000000     0.985880000000     0.0187618  
C285     C      0.400040000000     0.357740000000     0.900800000000    -0.0186374  
C286     C      0.416490000000     0.267970000000     0.969030000000    -0.0441417  
C287     C      0.426830000000     0.304140000000     0.941470000000    -0.038226   
C288     C      0.340400000000     0.294880000000     0.945780000000    -0.0449332  
C289     C      0.916190000000     0.058620000000     0.053290000000    -0.0383595  
C290     C      0.983040000000     0.077510000000     0.105690000000    -0.0228649  
C291     C      0.828850000000     0.990710000000     0.059130000000     0.0240623  
C292     C      0.926870000000     0.054420000000     0.090730000000     0.0135038  
C293     C      0.779630000000     0.951540000000     0.042450000000    -0.020837   
C294     C      0.887140000000     0.019890000000     0.112510000000    -0.0403552  
C295     C      0.838520000000     0.988450000000     0.096850000000    -0.045161   
C296     C      0.867830000000     0.026980000000     0.037570000000    -0.0399841  
C297     C      0.317730000000     0.988160000000     0.949640000000    -0.0422149  
C298     C      0.258330000000     0.957710000000     0.893730000000    -0.0191215  
C299     C      0.373540000000     0.072090000000     0.955260000000     0.0218881  
C300     C      0.299820000000     0.997590000000     0.914700000000     0.0264808  
C301     C      0.412770000000     0.112250000000     0.976760000000    -0.0202472  
C302     C      0.320700000000     0.044450000000     0.899620000000    -0.0312691  
C303     C      0.356810000000     0.081440000000     0.919930000000    -0.0362562  
C304     C      0.354730000000     0.025130000000     0.969630000000    -0.0402552  
C305     C      0.020230000000     0.722510000000     0.918600000000    -0.0449425  
C306     C      0.055520000000     0.804740000000     0.936840000000    -0.0216188  
C307     C      0.941170000000     0.656500000000     0.942780000000     0.0199963  
C308     C      0.016530000000     0.752840000000     0.940270000000     0.0126178  
C309     C      0.904800000000     0.604190000000     0.947410000000    -0.0222857  
C310     C      0.973440000000     0.734920000000     0.962080000000    -0.0398947  
C311     C      0.936550000000     0.686940000000     0.963770000000    -0.0462995  
C312     C      0.982760000000     0.674790000000     0.919790000000    -0.0463679  
C313     C      0.275600000000     0.384330000000     0.973180000000    -0.0465356  
C314     C      0.290550000000     0.467760000000     0.959230000000    -0.0239299  
C315     C      0.196350000000     0.317320000000     0.950610000000     0.0110395  
C316     C      0.258170000000     0.415410000000     0.956050000000     0.0246461  
C317     C      0.164900000000     0.265400000000     0.944770000000    -0.0193036  
C318     C      0.209350000000     0.397030000000     0.936730000000    -0.0454245  
C319     C      0.178790000000     0.348460000000     0.933940000000    -0.0407852  
C320     C      0.245150000000     0.335710000000     0.970220000000    -0.0406287  
H1       H      0.153060000000     0.055010000000     0.895170000000     0.194747   
H2       H      0.045780000000     0.094180000000     0.985140000000     0.194366   
H3       H      0.011640000000     0.911990000000     0.989860000000     0.196444   
H4       H      0.201340000000     0.047300000000     0.039460000000     0.200462   
H5       H      0.997190000000     0.084460000000     0.898960000000     0.142057   
H6       H      0.921960000000     0.019010000000     0.947300000000     0.195597   
H7       H      0.920150000000     0.923710000000     0.038050000000     0.134346   
H8       H      0.048730000000     0.879520000000     0.086460000000     0.199972   
H9       H      0.191200000000     0.937700000000     0.035660000000     0.136367   
H10      H      0.264880000000     0.012100000000     0.005220000000     0.194471   
H11      H      0.266330000000     0.142720000000     0.917650000000     0.134963   
H12      H      0.141750000000     0.170710000000     0.863870000000     0.200001   
H13      H      0.005980000000     0.896820000000     0.067100000000     0.185428   
H14      H      0.304430000000     0.069860000000     0.008590000000     0.200154   
H15      H      0.188450000000     0.155980000000     0.877840000000     0.186583   
H16      H      0.952180000000     0.059150000000     0.977610000000     0.188874   
H17      H      0.992500000000     0.014470000000     0.440470000000     0.196445   
H18      H      0.197090000000     0.145230000000     0.421720000000     0.189744   
H19      H      0.130790000000     0.092790000000     0.559120000000     0.195871   
H20      H      0.142010000000     0.963490000000     0.486340000000     0.200268   
H21      H      0.150370000000     0.183170000000     0.377970000000     0.131732   
H22      H      0.179730000000     0.235360000000     0.468200000000     0.203585   
H23      H      0.247650000000     0.162160000000     0.561680000000     0.127915   
H24      H      0.210990000000     0.069120000000     0.605790000000     0.186537   
H25      H      0.082030000000     0.919870000000     0.564060000000     0.139389   
H26      H      0.051440000000     0.872040000000     0.477490000000     0.199157   
H27      H      0.985700000000     0.946420000000     0.391410000000     0.128364   
H28      H      0.003790000000     0.032080000000     0.357230000000     0.185993   
H29      H      0.196420000000     0.012660000000     0.615530000000     0.200852   
H30      H      0.013040000000     0.872530000000     0.507320000000     0.197451   
H31      H      0.030880000000     0.087680000000     0.338410000000     0.199705   
H32      H      0.225170000000     0.234560000000     0.445190000000     0.193153   
H33      H      0.064030000000     0.470800000000     0.059190000000     0.191689   
H34      H      0.049060000000     0.476940000000     0.912090000000     0.196249   
H35      H      0.073520000000     0.627870000000     0.973240000000     0.195691   
H36      H      0.238700000000     0.592000000000     0.986200000000     0.199027   
H37      H      0.951160000000     0.410350000000     0.932990000000     0.128437   
H38      H      0.931580000000     0.482560000000     0.909750000000     0.196417   
H39      H      0.080360000000     0.653460000000     0.901590000000     0.123765   
H40      H      0.166340000000     0.717830000000     0.934130000000     0.188615   
H41      H      0.263800000000     0.711500000000     0.015560000000     0.142706   
H42      H      0.285950000000     0.590790000000     0.054060000000     0.196702   
H43      H      0.132630000000     0.440080000000     0.082970000000     0.124749   
H44      H      0.007950000000     0.345490000000     0.016770000000     0.20429    
H45      H      0.229230000000     0.740990000000     0.949390000000     0.199185   
H46      H      0.256110000000     0.601190000000     0.084770000000     0.204757   
H47      H      0.066760000000     0.380900000000     0.036060000000     0.189992   
H48      H      0.956870000000     0.507700000000     0.869610000000     0.199817   
H49      H      0.076940000000     0.550210000000     0.577870000000     0.194439   
H50      H      0.028670000000     0.502240000000     0.437860000000     0.196177   
H51      H      0.150240000000     0.687710000000     0.461040000000     0.195523   
H52      H      0.233150000000     0.569550000000     0.499130000000     0.191082   
H53      H      0.927650000000     0.489700000000     0.476460000000     0.132429   
H54      H      0.982110000000     0.572960000000     0.377840000000     0.200875   
H55      H      0.143990000000     0.670660000000     0.379530000000     0.137746   
H56      H      0.243900000000     0.740110000000     0.427830000000     0.195102   
H57      H      0.313160000000     0.652700000000     0.509660000000     0.123224   
H58      H      0.285270000000     0.586960000000     0.566500000000     0.18484    
H59      H      0.108120000000     0.465170000000     0.597580000000     0.141975   
H60      H      0.000330000000     0.459280000000     0.590170000000     0.1923     
H61      H      0.251240000000     0.706120000000     0.401470000000     0.199193   
H62      H      0.262820000000     0.571510000000     0.608150000000     0.200711   
H63      H      0.997570000000     0.417920000000     0.566290000000     0.199786   
H64      H      0.957950000000     0.551670000000     0.418760000000     0.188586   
H65      H      0.597810000000     0.033360000000     0.896670000000     0.197978   
H66      H      0.519540000000     0.949660000000     0.028410000000     0.195264   
H67      H      0.728990000000     0.067680000000     0.022770000000     0.194829   
H68      H      0.599540000000     0.143770000000     0.994880000000     0.198134   
H69      H      0.530840000000     0.880150000000     0.979280000000     0.13721    
H70      H      0.600620000000     0.889790000000     0.041290000000     0.198762   
H71      H      0.698380000000     0.033710000000     0.102460000000     0.131552   
H72      H      0.758730000000     0.124010000000     0.080600000000     0.186547   
H73      H      0.728650000000     0.218960000000     0.976720000000     0.138228   
H74      H      0.646430000000     0.211150000000     0.932730000000     0.189501   
H75      H      0.499790000000     0.064000000000     0.884670000000     0.142108   
H76      H      0.491790000000     0.977700000000     0.876860000000     0.191922   
H77      H      0.746480000000     0.166770000000     0.088910000000     0.202084   
H78      H      0.628560000000     0.201740000000     0.889060000000     0.202143   
H79      H      0.441450000000     0.934530000000     0.899410000000     0.201999   
H80      H      0.556980000000     0.890460000000     0.066300000000     0.19338    
H81      H      0.547460000000     0.063960000000     0.409530000000     0.196536   
H82      H      0.566050000000     0.088070000000     0.553530000000     0.193135   
H83      H      0.606680000000     0.955910000000     0.512340000000     0.18991    
H84      H      0.742880000000     0.140720000000     0.477140000000     0.199631   
H85      H      0.451450000000     0.039910000000     0.527860000000     0.130672   
H86      H      0.499090000000     0.009870000000     0.598630000000     0.191104   
H87      H      0.625930000000     0.956760000000     0.588500000000     0.12489    
H88      H      0.703020000000     0.965220000000     0.548860000000     0.185016   
H89      H      0.760410000000     0.074240000000     0.436020000000     0.140349   
H90      H      0.768670000000     0.153540000000     0.404130000000     0.192452   
H91      H      0.619640000000     0.182740000000     0.396650000000     0.140026   
H92      H      0.525550000000     0.162310000000     0.432500000000     0.198897   
H93      H      0.765550000000     0.005680000000     0.542320000000     0.202845   
H94      H      0.731070000000     0.137220000000     0.365910000000     0.202854   
H95      H      0.495210000000     0.115430000000     0.408020000000     0.194155   
H96      H      0.462850000000     0.963050000000     0.574710000000     0.197609   
H97      H      0.519850000000     0.549380000000     0.055110000000     0.200627   
H98      H      0.528710000000     0.521680000000     0.916170000000     0.191879   
H99      H      0.707690000000     0.649320000000     0.984380000000     0.198029   
H100     H      0.632170000000     0.464460000000     0.029540000000     0.198574   
H101     H      0.469660000000     0.564500000000     0.911530000000     0.131022   
H102     H      0.568360000000     0.649670000000     0.890040000000     0.200864   
H103     H      0.733880000000     0.649500000000     0.913440000000     0.125253   
H104     H      0.790300000000     0.619320000000     0.963630000000     0.185833   
H105     H      0.731340000000     0.542770000000     0.084090000000     0.141793   
H106     H      0.639670000000     0.460300000000     0.106190000000     0.19521    
H107     H      0.458270000000     0.428870000000     0.071900000000     0.137434   
H108     H      0.396520000000     0.501180000000     0.021350000000     0.198167   
H109     H      0.816000000000     0.606640000000     0.002990000000     0.196743   
H110     H      0.607600000000     0.469380000000     0.136060000000     0.203171   
H111     H      0.402420000000     0.452780000000     0.021150000000     0.194338   
H112     H      0.560590000000     0.607740000000     0.864570000000     0.194317   
H113     H      0.521840000000     0.493870000000     0.558920000000     0.194157   
H114     H      0.545000000000     0.552610000000     0.415210000000     0.196631   
H115     H      0.679820000000     0.673360000000     0.513770000000     0.189495   
H116     H      0.694440000000     0.516070000000     0.498810000000     0.197369   
H117     H      0.412770000000     0.502690000000     0.438600000000     0.139737   
H118     H      0.514500000000     0.642330000000     0.426510000000     0.207666   
H119     H      0.706090000000     0.724510000000     0.449310000000     0.126765   
H120     H      0.779140000000     0.716110000000     0.500700000000     0.187052   
H121     H      0.766020000000     0.562760000000     0.556400000000     0.135563   
H122     H      0.696730000000     0.461590000000     0.561130000000     0.191229   
H123     H      0.510600000000     0.396230000000     0.547310000000     0.130288   
H124     H      0.432160000000     0.412890000000     0.520090000000     0.187185   
H125     H      0.822600000000     0.697640000000     0.497770000000     0.203422   
H126     H      0.685400000000     0.476170000000     0.599350000000     0.198774   
H127     H      0.392490000000     0.425530000000     0.490680000000     0.195437   
H128     H      0.539850000000     0.640300000000     0.389110000000     0.198962   
H129     H      0.578890000000     0.523870000000     0.675980000000     0.102062   
H130     H      0.555200000000     0.430230000000     0.845390000000     0.0431134  
H131     H      0.623390000000     0.446630000000     0.846330000000     0.0406295  
H132     H      0.500410000000     0.434510000000     0.721690000000     0.0380443  
H133     H      0.506400000000     0.433810000000     0.787950000000     0.0374679  
H134     H      0.610210000000     0.451430000000     0.667960000000     0.0418093  
H135     H      0.671400000000     0.477410000000     0.789300000000     0.0385547  
H136     H      0.665500000000     0.478350000000     0.723060000000     0.037812   
H137     H      0.540030000000     0.427960000000     0.667770000000     0.0406605  
H138     H      0.624990000000     0.532310000000     0.823130000000     0.101731   
H139     H      0.592560000000     0.623050000000     0.154060000000     0.101166   
H140     H      0.677580000000     0.571330000000     0.330610000000     0.0504576  
H141     H      0.722850000000     0.628930000000     0.312390000000     0.0363921  
H142     H      0.522930000000     0.543290000000     0.246370000000     0.0371119  
H143     H      0.573720000000     0.564970000000     0.304110000000     0.0420666  
H144     H      0.558700000000     0.518750000000     0.174890000000     0.0456425  
H145     H      0.716960000000     0.616080000000     0.249840000000     0.0376666  
H146     H      0.666080000000     0.593240000000     0.192310000000     0.0436329  
H147     H      0.518030000000     0.543650000000     0.181610000000     0.0360549  
H148     H      0.666310000000     0.660360000000     0.328490000000     0.100288   
H149     H      0.439740000000     0.832020000000     0.495080000000     0.104752   
H150     H      0.628360000000     0.767640000000     0.571450000000     0.034279   
H151     H      0.572490000000     0.710730000000     0.579770000000     0.0494224  
H152     H      0.554320000000     0.865940000000     0.573690000000     0.0467873  
H153     H      0.613150000000     0.832230000000     0.575900000000     0.0336696  
H154     H      0.407930000000     0.797500000000     0.554350000000     0.0378815  
H155     H      0.482840000000     0.700750000000     0.543710000000     0.0426934  
H156     H      0.424080000000     0.734840000000     0.540910000000     0.0453934  
H157     H      0.459020000000     0.848350000000     0.575120000000     0.0465589  
H158     H      0.595100000000     0.757770000000     0.502720000000     0.0995208  
H159     H      0.616800000000     0.376030000000     0.441100000000     0.0979304  
H160     H      0.814520000000     0.342680000000     0.471940000000     0.0355496  
H161     H      0.794380000000     0.296730000000     0.508200000000     0.0472318  
H162     H      0.688730000000     0.356030000000     0.543620000000     0.0351193  
H163     H      0.762800000000     0.342670000000     0.537410000000     0.0389317  
H164     H      0.567310000000     0.309240000000     0.487420000000     0.0320765  
H165     H      0.695300000000     0.289400000000     0.433120000000     0.0426501  
H166     H      0.620680000000     0.300330000000     0.440430000000     0.0350256  
H167     H      0.604040000000     0.347730000000     0.522580000000     0.0455438  
H168     H      0.782590000000     0.286170000000     0.429360000000     0.0950232  
H169     H      0.637870000000     0.071090000000     0.669030000000     0.100391   
H170     H      0.730130000000     0.207100000000     0.818360000000     0.0342636  
H171     H      0.661050000000     0.168850000000     0.819970000000     0.0443078  
H172     H      0.776740000000     0.177350000000     0.709440000000     0.036724   
H173     H      0.779530000000     0.188160000000     0.773660000000     0.0373002  
H174     H      0.678930000000     0.172070000000     0.646870000000     0.0434835  
H175     H      0.611780000000     0.133020000000     0.766610000000     0.0404168  
H176     H      0.609120000000     0.123230000000     0.702130000000     0.0386556  
H177     H      0.731490000000     0.157820000000     0.652040000000     0.0429659  
H178     H      0.738710000000     0.130500000000     0.831600000000     0.100575   
H179     H      0.603630000000     0.050950000000     0.307280000000     0.098458   
H180     H      0.583980000000     0.952180000000     0.157890000000     0.0482808  
H181     H      0.516830000000     0.908020000000     0.161610000000     0.0342367  
H182     H      0.632020000000     0.000850000000     0.274750000000     0.0396325  
H183     H      0.630680000000     0.988920000000     0.210960000000     0.0401067  
H184     H      0.507980000000     0.964550000000     0.323550000000     0.0427795  
H185     H      0.462160000000     0.928420000000     0.202960000000     0.0377556  
H186     H      0.463650000000     0.941580000000     0.266420000000     0.0374104  
H187     H      0.560640000000     0.950470000000     0.329960000000     0.0460531  
H188     H      0.497550000000     0.979750000000     0.144220000000     0.100528   
H189     H      0.714190000000     0.771910000000     0.928900000000     0.0990214  
H190     H      0.703250000000     0.963810000000     0.869610000000     0.0468842  
H191     H      0.665820000000     0.914450000000     0.843270000000     0.0332786  
H192     H      0.612950000000     0.780420000000     0.934420000000     0.0428284  
H193     H      0.600500000000     0.834940000000     0.888450000000     0.0398812  
H194     H      0.739970000000     0.812090000000     0.990940000000     0.0382751  
H195     H      0.755690000000     0.945990000000     0.916710000000     0.0412784  
H196     H      0.768760000000     0.890680000000     0.962070000000     0.0378124  
H197     H      0.670060000000     0.779070000000     0.996360000000     0.0482958  
H198     H      0.585670000000     0.901460000000     0.864640000000     0.0969079  
H199     H      0.560340000000     0.149120000000     0.109190000000     0.101104   
H200     H      0.474130000000     0.288230000000     0.082830000000     0.0351362  
H201     H      0.528720000000     0.341510000000     0.097710000000     0.0470134  
H202     H      0.560480000000     0.208650000000     0.146100000000     0.0374089  
H203     H      0.509150000000     0.250040000000     0.133320000000     0.0364176  
H204     H      0.669470000000     0.227830000000     0.088560000000     0.0446602  
H205     H      0.600670000000     0.327760000000     0.040820000000     0.0427283  
H206     H      0.649970000000     0.284700000000     0.052690000000     0.0405883  
H207     H      0.648700000000     0.211390000000     0.134330000000     0.0350921  
H208     H      0.509210000000     0.312850000000     0.019830000000     0.0980594  
H209     H      0.005820000000     0.356380000000     0.441520000000     0.0982358  
H210     H      0.891830000000     0.206640000000     0.601370000000     0.031142   
H211     H      0.830450000000     0.206750000000     0.595880000000     0.043802   
H212     H      0.896690000000     0.349440000000     0.522030000000     0.0449116  
H213     H      0.863970000000     0.288980000000     0.572880000000     0.0368955  
H214     H      0.913790000000     0.323100000000     0.434440000000     0.0316654  
H215     H      0.906900000000     0.202250000000     0.521620000000     0.040539   
H216     H      0.937590000000     0.261930000000     0.470240000000     0.039026   
H217     H      0.914480000000     0.367410000000     0.458420000000     0.0444207  
H218     H      0.856200000000     0.137970000000     0.570650000000     0.0953723  
H219     H      0.382030000000     0.931030000000     0.404160000000     0.0993723  
H220     H      0.247820000000     0.825750000000     0.562380000000     0.0377065  
H221     H      0.193600000000     0.798230000000     0.530300000000     0.0472118  
H222     H      0.371270000000     0.965700000000     0.499190000000     0.0464104  
H223     H      0.323540000000     0.901580000000     0.545080000000     0.0348748  
H224     H      0.325080000000     0.966400000000     0.400440000000     0.0350359  
H225     H      0.206910000000     0.824280000000     0.462890000000     0.0368543  
H226     H      0.254860000000     0.888230000000     0.416940000000     0.0372501  
H227     H      0.364780000000     0.004390000000     0.435010000000     0.0500167  
H228     H      0.297740000000     0.799120000000     0.525940000000     0.101232   
H229     H      0.952280000000     0.600820000000     0.583400000000     0.10032    
H230     H      0.834120000000     0.556720000000     0.395580000000     0.0317441  
H231     H      0.769670000000     0.515390000000     0.409860000000     0.0457197  
H232     H      0.797640000000     0.472240000000     0.533310000000     0.0328266  
H233     H      0.761650000000     0.476130000000     0.471100000000     0.0390659  
H234     H      0.865070000000     0.539270000000     0.581850000000     0.0328537  
H235     H      0.904220000000     0.604150000000     0.445150000000     0.038951   
H236     H      0.938360000000     0.603050000000     0.507090000000     0.0503008  
H237     H      0.885870000000     0.498910000000     0.573200000000     0.0410194  
H238     H      0.829900000000     0.620750000000     0.418230000000     0.0965492  
H239     H      0.327410000000     0.620810000000     0.401080000000     0.0964957  
H240     H      0.342620000000     0.513150000000     0.579620000000     0.0294129  
H241     H      0.360900000000     0.472290000000     0.567050000000     0.0357952  
H242     H      0.362720000000     0.611300000000     0.464200000000     0.0429766  
H243     H      0.386050000000     0.594510000000     0.526990000000     0.038034   
H244     H      0.338240000000     0.555680000000     0.394340000000     0.0345119  
H245     H      0.317870000000     0.447250000000     0.509580000000     0.0324264  
H246     H      0.291010000000     0.463250000000     0.447140000000     0.0344523  
H247     H      0.271020000000     0.515680000000     0.402750000000     0.0442391  
H248     H      0.431330000000     0.561440000000     0.593800000000     0.0964391  
H249     H      0.072730000000     0.550320000000     0.801380000000     0.0984486  
H250     H      0.260160000000     0.680620000000     0.677310000000     0.0329268  
H251     H      0.246210000000     0.628620000000     0.657680000000     0.0422892  
H252     H      0.197900000000     0.622400000000     0.793200000000     0.0459065  
H253     H      0.239010000000     0.672410000000     0.738720000000     0.0379858  
H254     H      0.104220000000     0.490180000000     0.793680000000     0.0336008  
H255     H      0.155340000000     0.551990000000     0.675450000000     0.0504153  
H256     H      0.113670000000     0.502100000000     0.729840000000     0.0373565  
H257     H      0.164010000000     0.529150000000     0.817410000000     0.0492119  
H258     H      0.178650000000     0.677020000000     0.650800000000     0.101222   
H259     H      0.065990000000     0.538730000000     0.317610000000     0.0982489  
H260     H      0.189620000000     0.561880000000     0.170120000000     0.0385451  
H261     H      0.152530000000     0.499550000000     0.165800000000     0.0446792  
H262     H      0.178190000000     0.569070000000     0.293350000000     0.0422199  
H263     H      0.200470000000     0.586410000000     0.229690000000     0.0375963  
H264     H      0.064310000000     0.453960000000     0.329900000000     0.0373719  
H265     H      0.067190000000     0.453080000000     0.204270000000     0.0393355  
H266     H      0.044570000000     0.435950000000     0.267890000000     0.0369593  
H267     H      0.133030000000     0.492430000000     0.340600000000     0.0479892  
H268     H      0.084870000000     0.544680000000     0.160150000000     0.101773   
H269     H      0.110510000000     0.387250000000     0.883470000000     0.0934794  
H270     H      0.904140000000     0.202770000000     0.019690000000     0.0320742  
H271     H      0.861990000000     0.227910000000     0.006250000000     0.0456367  
H272     H      0.046100000000     0.285680000000     0.942340000000     0.041183   
H273     H      0.985400000000     0.231460000000     0.988310000000     0.0365625  
H274     H      0.035230000000     0.317420000000     0.872810000000     0.0305684  
H275     H      0.872630000000     0.276670000000     0.946590000000     0.0447339  
H276     H      0.932870000000     0.330430000000     0.900700000000     0.0386035  
H277     H      0.008170000000     0.356620000000     0.867570000000     0.0307936  
H278     H      0.868580000000     0.160100000000     0.960020000000     0.100143   
H279     H      0.093530000000     0.700680000000     0.072310000000     0.0980384  
H280     H      0.368250000000     0.847950000000     0.997130000000     0.040054   
H281     H      0.347820000000     0.874340000000     0.958270000000     0.037057   
H282     H      0.220250000000     0.767340000000     0.070180000000     0.0446769  
H283     H      0.311580000000     0.816260000000     0.052780000000     0.0383222  
H284     H      0.123290000000     0.776570000000     0.046510000000     0.0331558  
H285     H      0.257170000000     0.855770000000     0.948980000000     0.0328712  
H286     H      0.166360000000     0.806680000000     0.966040000000     0.0365841  
H287     H      0.102310000000     0.748360000000     0.005260000000     0.033456   
H288     H      0.355440000000     0.922040000000     0.021870000000     0.0982306  
H289     H      0.891690000000     0.376200000000     0.066760000000     0.0968508  
H290     H      0.789070000000     0.513140000000     0.946220000000     0.0420255  
H291     H      0.783230000000     0.462670000000     0.928570000000     0.0304641  
H292     H      0.815560000000     0.372390000000     0.027170000000     0.043653   
H293     H      0.772540000000     0.391310000000     0.972580000000     0.0387024  
H294     H      0.901500000000     0.462200000000     0.095330000000     0.0456847  
H295     H      0.819730000000     0.527280000000     0.009330000000     0.0422884  
H296     H      0.865250000000     0.509540000000     0.063160000000     0.0435312  
H297     H      0.848650000000     0.402740000000     0.099540000000     0.0325537  
H298     H      0.693240000000     0.418990000000     0.939740000000     0.0975131  
H299     H      0.312200000000     0.706750000000     0.892160000000     0.0958841  
H300     H      0.414270000000     0.650840000000     0.043910000000     0.0276933  
H301     H      0.406170000000     0.594560000000     0.037300000000     0.0326503  
H302     H      0.328860000000     0.573330000000     0.919730000000     0.0478225  
H303     H      0.367700000000     0.564160000000     0.979920000000     0.0436086  
H304     H      0.361860000000     0.681710000000     0.865190000000     0.0327112  
H305     H      0.443450000000     0.714500000000     0.986880000000     0.0406596  
H306     H      0.405600000000     0.723900000000     0.926350000000     0.0407073  
H307     H      0.311690000000     0.620960000000     0.871170000000     0.0447341  
H308     H      0.504990000000     0.684180000000     0.041660000000     0.0979611  
H309     H      0.864210000000     0.928080000000     0.520770000000     0.0990406  
H310     H      0.767620000000     0.744210000000     0.645300000000     0.0351297  
H311     H      0.706380000000     0.721700000000     0.619430000000     0.0469965  
H312     H      0.896860000000     0.852480000000     0.563480000000     0.0406989  
H313     H      0.852280000000     0.797140000000     0.614950000000     0.0379771  
H314     H      0.880260000000     0.854590000000     0.489080000000     0.0455416  
H315     H      0.703330000000     0.751750000000     0.554920000000     0.0404589  
H316     H      0.747730000000     0.807570000000     0.503540000000     0.0352855  
H317     H      0.825970000000     0.864940000000     0.474380000000     0.0364727  
H318     H      0.792730000000     0.696210000000     0.616720000000     0.0987079  
H319     H      0.366180000000     0.223300000000     0.469680000000     0.0994147  
H320     H      0.528770000000     0.406020000000     0.369840000000     0.0487703  
H321     H      0.473760000000     0.395110000000     0.338960000000     0.034241   
H322     H      0.476190000000     0.263200000000     0.446410000000     0.0340885  
H323     H      0.520710000000     0.346280000000     0.422240000000     0.0454112  
H324     H      0.352500000000     0.169060000000     0.405020000000     0.0458267  
H325     H      0.393100000000     0.317750000000     0.342230000000     0.0363678  
H326     H      0.348300000000     0.234830000000     0.366510000000     0.0361673  
H327     H      0.405570000000     0.180390000000     0.438780000000     0.03691    
H328     H      0.426310000000     0.398610000000     0.390530000000     0.0956093  
H329     H      0.627410000000     0.889510000000     0.416460000000     0.0986592  
H330     H      0.877070000000     0.112730000000     0.444570000000     0.0415214  
H331     H      0.907220000000     0.093020000000     0.481380000000     0.0485036  
H332     H      0.745510000000     0.974060000000     0.390200000000     0.0412419  
H333     H      0.826160000000     0.050520000000     0.393280000000     0.0370974  
H334     H      0.703100000000     0.882630000000     0.426190000000     0.0342907  
H335     H      0.854710000000     0.013040000000     0.505340000000     0.0420603  
H336     H      0.774330000000     0.936940000000     0.502290000000     0.0354824  
H337     H      0.693780000000     0.884600000000     0.472480000000     0.0347521  
H338     H      0.928780000000     0.107510000000     0.402050000000     0.0958446  
H339     H      0.326610000000     0.024690000000     0.503870000000     0.106873   
H340     H      0.530550000000     0.229060000000     0.507470000000     0.0351967  
H341     H      0.533430000000     0.244550000000     0.552430000000     0.0319559  
H342     H      0.352300000000     0.119770000000     0.512920000000     0.0504541  
H343     H      0.435060000000     0.192270000000     0.503560000000     0.0382244  
H344     H      0.343310000000     0.012340000000     0.571180000000     0.0327456  
H345     H      0.511110000000     0.142150000000     0.589460000000     0.0369879  
H346     H      0.428400000000     0.068500000000     0.598150000000     0.0310604  
H347     H      0.309800000000     0.043500000000     0.578490000000     0.0443688  
H348     H      0.607090000000     0.234760000000     0.562730000000     0.0980586  
H349     H      0.171740000000     0.934970000000     0.372770000000     0.0980074  
H350     H      0.946330000000     0.694680000000     0.437820000000     0.0313055  
H351     H      0.982210000000     0.679230000000     0.411900000000     0.0448033  
H352     H      0.999170000000     0.851630000000     0.395100000000     0.0534494  
H353     H      0.955760000000     0.771990000000     0.425660000000     0.0375902  
H354     H      0.103150000000     0.890680000000     0.332490000000     0.0324621  
H355     H      0.079180000000     0.747970000000     0.397550000000     0.0480083  
H356     H      0.123120000000     0.828150000000     0.367380000000     0.0386029  
H357     H      0.060520000000     0.906540000000     0.350760000000     0.0427793  
H358     H      0.017060000000     0.719710000000     0.485940000000     0.0992237  
H359     H      0.127040000000     0.216110000000     0.576840000000     0.0987694  
H360     H      0.226060000000     0.390890000000     0.508600000000     0.0303919  
H361     H      0.185280000000     0.407230000000     0.478240000000     0.0472017  
H362     H      0.068030000000     0.241890000000     0.486080000000     0.0408094  
H363     H      0.128980000000     0.323670000000     0.465660000000     0.0374774  
H364     H      0.032380000000     0.198320000000     0.582440000000     0.0352575  
H365     H      0.151350000000     0.362030000000     0.575550000000     0.0400019  
H366     H      0.090300000000     0.280980000000     0.595370000000     0.0366483  
H367     H      0.019660000000     0.181650000000     0.536470000000     0.0456524  
H368     H      0.221790000000     0.432940000000     0.555770000000     0.0940579  
H369     H      0.050890000000     0.989320000000     0.650230000000     0.0982123  
H370     H      0.067930000000     0.093590000000     0.795460000000     0.0394523  
H371     H      0.998590000000     0.060590000000     0.801170000000     0.038603   
H372     H      0.083450000000     0.083590000000     0.673190000000     0.0397423  
H373     H      0.099620000000     0.102100000000     0.736640000000     0.0366197  
H374     H      0.955430000000     0.984080000000     0.636100000000     0.0385119  
H375     H      0.942670000000     0.992200000000     0.759260000000     0.0393644  
H376     H      0.926790000000     0.973040000000     0.695970000000     0.0373199  
H377     H      0.995840000000     0.046260000000     0.624110000000     0.0470347  
H378     H      0.029150000000     0.990360000000     0.802710000000     0.10255    
H379     H      0.221700000000     0.091820000000     0.318510000000     0.100526   
H380     H      0.210040000000     0.111250000000     0.134660000000     0.0516244  
H381     H      0.252220000000     0.087790000000     0.152800000000     0.0346093  
H382     H      0.095530000000     0.053040000000     0.241140000000     0.0370763  
H383     H      0.114660000000     0.040090000000     0.182610000000     0.0463717  
H384     H      0.181200000000     0.150550000000     0.291740000000     0.0340226  
H385     H      0.279480000000     0.134720000000     0.204550000000     0.0370391  
H386     H      0.260020000000     0.148850000000     0.262490000000     0.0368426  
H387     H      0.121610000000     0.094550000000     0.294120000000     0.0414056  
H388     H      0.174000000000     0.005760000000     0.153770000000     0.0992412  
H389     H      0.785240000000     0.719520000000     0.090490000000     0.0989117  
H390     H      0.813800000000     0.824180000000     0.916540000000     0.0332922  
H391     H      0.838960000000     0.872800000000     0.943690000000     0.0426691  
H392     H      0.850680000000     0.804540000000     0.060570000000     0.0343879  
H393     H      0.848090000000     0.856350000000     0.007780000000     0.0476524  
H394     H      0.851170000000     0.689550000000     0.055160000000     0.0404319  
H395     H      0.844590000000     0.760020000000     0.937040000000     0.0392473  
H396     H      0.845160000000     0.707080000000     0.989890000000     0.0351706  
H397     H      0.873010000000     0.737250000000     0.083490000000     0.0308253  
H398     H      0.898140000000     0.848530000000     0.897670000000     0.0997627  
H399     H      0.366210000000     0.399250000000     0.914110000000     0.0965067  
H400     H      0.364030000000     0.179070000000     0.007050000000     0.0382254  
H401     H      0.392410000000     0.223940000000     0.037960000000     0.0320592  
H402     H      0.310500000000     0.304810000000     0.936780000000     0.0391768  
H403     H      0.292650000000     0.242930000000     0.985640000000     0.046356   
H404     H      0.437500000000     0.369400000000     0.887950000000     0.042075   
H405     H      0.446210000000     0.257660000000     0.977520000000     0.03619    
H406     H      0.464510000000     0.321400000000     0.929410000000     0.0449098  
H407     H      0.368000000000     0.345180000000     0.879210000000     0.0302475  
H408     H      0.308470000000     0.208320000000     0.053370000000     0.0985877  
H409     H      0.784330000000     0.970990000000     0.985060000000     0.0980165  
H410     H      0.006900000000     0.112520000000     0.090900000000     0.0403561  
H411     H      0.984970000000     0.083430000000     0.134650000000     0.0345794  
H412     H      0.862280000000     0.029790000000     0.008400000000     0.0411689  
H413     H      0.946620000000     0.084380000000     0.035960000000     0.0274611  
H414     H      0.788250000000     0.923010000000     0.038150000000     0.0384638  
H415     H      0.894960000000     0.015250000000     0.141380000000     0.0358001  
H416     H      0.809450000000     0.960720000000     0.114070000000     0.0406392  
H417     H      0.747160000000     0.935470000000     0.061280000000     0.0465527  
H418     H      0.983850000000     0.012580000000     0.117210000000     0.0979812  
H419     H      0.469460000000     0.159390000000     0.938590000000     0.0969882  
H420     H      0.275330000000     0.957660000000     0.868530000000     0.0305822  
H421     H      0.247760000000     0.923120000000     0.909210000000     0.0313737  
H422     H      0.367880000000     0.017120000000     0.996560000000     0.0453351  
H423     H      0.302750000000     0.952230000000     0.961620000000     0.0384858  
H424     H      0.399810000000     0.139200000000     0.975540000000     0.0312994  
H425     H      0.307870000000     0.052340000000     0.872550000000     0.0445163  
H426     H      0.371660000000     0.117450000000     0.908160000000     0.0449526  
H427     H      0.416480000000     0.100510000000     0.005750000000     0.0417951  
H428     H      0.185970000000     0.939290000000     0.863270000000     0.0970983  
H429     H      0.911760000000     0.586640000000     0.004500000000     0.0954277  
H430     H      0.093020000000     0.810690000000     0.927160000000     0.033833   
H431     H      0.038630000000     0.821550000000     0.915790000000     0.0510459  
H432     H      0.986530000000     0.651940000000     0.903120000000     0.0525889  
H433     H      0.052120000000     0.735790000000     0.900700000000     0.034811   
H434     H      0.864560000000     0.597180000000     0.951630000000     0.0292925  
H435     H      0.968550000000     0.757840000000     0.978070000000     0.0420352  
H436     H      0.904800000000     0.673410000000     0.981790000000     0.0317229  
H437     H      0.902630000000     0.586530000000     0.923150000000     0.0437391  
H438     H      0.073740000000     0.807730000000     0.994830000000     0.0948503  
H439     H      0.167930000000     0.249590000000     0.003340000000     0.10044    
H440     H      0.332890000000     0.478060000000     0.962680000000     0.0393852  
H441     H      0.286010000000     0.487560000000     0.933830000000     0.0466932  
H442     H      0.259850000000     0.312500000000     0.983030000000     0.0399959  
H443     H      0.313020000000     0.397740000000     0.988480000000     0.0381143  
H444     H      0.124890000000     0.256170000000     0.932750000000     0.0384494  
H445     H      0.195340000000     0.420430000000     0.923360000000     0.0556749  
H446     H      0.141750000000     0.335180000000     0.918240000000     0.0369789  
H447     H      0.185640000000     0.258420000000     0.925060000000     0.041562   
H448     H      0.290270000000     0.473480000000     0.016060000000     0.0939648  
N1       N      0.583930000000     0.502040000000     0.660360000000    -0.213797   
N2       N      0.608190000000     0.503950000000     0.842780000000    -0.213722   
N3       N      0.582670000000     0.588450000000     0.149980000000    -0.213291   
N4       N      0.662420000000     0.627540000000     0.338760000000    -0.213106   
N5       N      0.457480000000     0.851600000000     0.517570000000    -0.212418   
N6       N      0.591430000000     0.732680000000     0.524280000000    -0.213111   
N7       N      0.613300000000     0.379530000000     0.468030000000    -0.214617   
N8       N      0.770180000000     0.273380000000     0.455650000000    -0.213281   
N9       N      0.654960000000     0.099430000000     0.649440000000    -0.21288    
N10      N      0.709300000000     0.137130000000     0.838230000000    -0.21235    
N11      N      0.584400000000     0.023070000000     0.326800000000    -0.212476   
N12      N      0.527480000000     0.973900000000     0.137470000000    -0.211853   
N13      N      0.697430000000     0.760070000000     0.954090000000    -0.212542   
N14      N      0.620780000000     0.928050000000     0.875480000000    -0.212755   
N15      N      0.596160000000     0.164830000000     0.096810000000    -0.212466   
N16      N      0.517970000000     0.335060000000     0.040380000000    -0.21346    
N17      N      0.988460000000     0.370830000000     0.455180000000    -0.212009   
N18      N      0.833700000000     0.155090000000     0.568790000000    -0.212593   
N19      N      0.392110000000     0.960090000000     0.418580000000    -0.211845   
N20      N      0.257190000000     0.783950000000     0.528150000000    -0.212167   
N21      N      0.945410000000     0.570790000000     0.571520000000    -0.214233   
N22      N      0.796720000000     0.587250000000     0.418870000000    -0.211572   
N23      N      0.296470000000     0.587680000000     0.409060000000    -0.213402   
N24      N      0.423320000000     0.541500000000     0.571800000000    -0.213719   
N25      N      0.100450000000     0.543700000000     0.817350000000    -0.212566   
N26      N      0.190470000000     0.653510000000     0.644280000000    -0.212714   
N27      N      0.084350000000     0.524190000000     0.336530000000    -0.213118   
N28      N      0.111590000000     0.537840000000     0.149170000000    -0.213342   
N29      N      0.079300000000     0.379690000000     0.899060000000    -0.213398   
N30      N      0.850550000000     0.171790000000     0.975830000000    -0.212673   
N31      N      0.116280000000     0.708900000000     0.050070000000    -0.212765   
N32      N      0.374640000000     0.913950000000     0.004140000000    -0.213421   
N33      N      0.908480000000     0.412760000000     0.067400000000    -0.212116   
N34      N      0.714790000000     0.451280000000     0.951250000000    -0.213148   
N35      N      0.298190000000     0.670310000000     0.893880000000    -0.2127     
N36      N      0.482770000000     0.651930000000     0.030170000000    -0.213917   
N37      N      0.883980000000     0.915400000000     0.507640000000    -0.211647   
N38      N      0.755000000000     0.692180000000     0.611330000000    -0.21161    
N39      N      0.347860000000     0.194730000000     0.453580000000    -0.213027   
N40      N      0.466940000000     0.412650000000     0.389880000000    -0.212064   
N41      N      0.656430000000     0.913140000000     0.433740000000    -0.212425   
N42      N      0.933090000000     0.096780000000     0.429270000000    -0.212627   
N43      N      0.306200000000     0.027740000000     0.523800000000    -0.212449   
N44      N      0.577810000000     0.211340000000     0.545440000000    -0.21353    
N45      N      0.134370000000     0.927400000000     0.379190000000    -0.212659   
N46      N      0.016210000000     0.701210000000     0.464700000000    -0.21356    
N47      N      0.093320000000     0.192830000000     0.562270000000    -0.212632   
N48      N      0.202480000000     0.433380000000     0.530530000000    -0.213089   
N49      N      0.035240000000     0.005600000000     0.630620000000    -0.213331   
N50      N      0.039010000000     0.021550000000     0.814180000000    -0.213744   
N51      N      0.189250000000     0.095700000000     0.322440000000    -0.214292   
N52      N      0.175980000000     0.035660000000     0.138440000000    -0.211952   
N53      N      0.791180000000     0.698500000000     0.074600000000    -0.213358   
N54      N      0.896220000000     0.865700000000     0.918870000000    -0.212772   
N55      N      0.401050000000     0.397400000000     0.916060000000    -0.213302   
N56      N      0.310010000000     0.189700000000     0.033090000000    -0.215031   
N57      N      0.763880000000     0.967920000000     0.007410000000    -0.213197   
N58      N      0.003580000000     0.045440000000     0.102560000000    -0.21063    
N59      N      0.463250000000     0.133850000000     0.960260000000    -0.213542   
N60      N      0.209720000000     0.960380000000     0.883900000000    -0.211813   
N61      N      0.923520000000     0.584880000000     0.979510000000    -0.212275   
N62      N      0.066930000000     0.825820000000     0.971520000000    -0.214104   
N63      N      0.160420000000     0.235280000000     0.978400000000    -0.21346    
N64      N      0.275650000000     0.480590000000     0.990560000000    -0.212447   
O1       O      0.266970000000     0.130290000000     0.995750000000    -0.384487   
O2       O      0.222570000000     0.142250000000     0.036080000000    -0.373997   
O3       O      0.065660000000     0.062170000000     0.864570000000    -0.381804   
O4       O      0.055520000000     0.988140000000     0.867100000000    -0.376903   
O5       O      0.131750000000     0.170560000000     0.947380000000    -0.374016   
O6       O      0.143930000000     0.165250000000     0.008780000000    -0.377305   
O7       O      0.216200000000     0.007450000000     0.926950000000    -0.367939   
O8       O      0.138200000000     0.963680000000     0.896970000000    -0.37588    
O9       O      0.267810000000     0.113010000000     0.918040000000    -0.354347   
O10      O      0.272690000000     0.044390000000     0.998730000000    -0.52774    
O11      O      0.153700000000     0.151650000000     0.879680000000    -0.521573   
O12      O      0.028010000000     0.114310000000     0.905950000000    -0.353554   
O13      O      0.167440000000     0.106960000000     0.967090000000    -0.499467   
O14      O      0.139800000000     0.048900000000     0.918970000000    -0.634564   
O15      O      0.087990000000     0.886660000000     0.005140000000    -0.383672   
O16      O      0.067200000000     0.892090000000     0.944750000000    -0.3771     
O17      O      0.001210000000     0.008260000000     0.054640000000    -0.365995   
O18      O      0.065490000000     0.083400000000     0.060990000000    -0.37658    
O19      O      0.938920000000     0.923450000000     0.957860000000    -0.380354   
O20      O      0.983450000000     0.913740000000     0.916330000000    -0.376294   
O21      O      0.138180000000     0.991340000000     0.090500000000    -0.372358   
O22      O      0.156410000000     0.068090000000     0.085750000000    -0.375753   
O23      O      0.040780000000     0.900140000000     0.069200000000    -0.525189   
O24      O      0.173530000000     0.937780000000     0.056780000000    -0.347395   
O25      O      0.913790000000     0.944720000000     0.019070000000    -0.337151   
O26      O      0.947530000000     0.031630000000     0.967210000000    -0.528002   
O27      O      0.037010000000     0.945160000000     0.987350000000    -0.629668   
O28      O      0.066880000000     0.005470000000     0.035320000000    -0.485982   
O29      O      0.143880000000     0.980070000000     0.973510000000    -0.499446   
O30      O      0.060120000000     0.074070000000     0.981480000000    -0.627596   
O31      O      0.172720000000     0.039820000000     0.021410000000    -0.63165    
O32      O      0.031410000000     0.013440000000     0.933030000000    -0.501875   
O33      O      0.084160000000     0.940610000000     0.413680000000    -0.377058   
O34      O      0.172840000000     0.987590000000     0.415240000000    -0.375532   
O35      O      0.007000000000     0.097710000000     0.416160000000    -0.379247   
O36      O      0.979330000000     0.075700000000     0.473570000000    -0.372137   
O37      O      0.135250000000     0.095280000000     0.361950000000    -0.385512   
O38      O      0.199530000000     0.076640000000     0.381970000000    -0.375984   
O39      O      0.959070000000     0.931150000000     0.482270000000    -0.374725   
O40      O      0.955650000000     0.986860000000     0.511260000000    -0.375679   
O41      O      0.977680000000     0.922330000000     0.412210000000    -0.341654   
O42      O      0.034670000000     0.887340000000     0.486800000000    -0.53123    
O43      O      0.028760000000     0.065170000000     0.358540000000    -0.518164   
O44      O      0.117750000000     0.173910000000     0.389930000000    -0.349788   
O45      O      0.102130000000     0.026620000000     0.419390000000    -0.495749   
O46      O      0.028340000000     0.026120000000     0.449950000000    -0.634064   
O47      O      0.089440000000     0.007070000000     0.591100000000    -0.383311   
O48      O      0.029820000000     0.031820000000     0.571720000000    -0.376778   
O49      O      0.272870000000     0.174340000000     0.479400000000    -0.380595   
O50      O      0.274840000000     0.124540000000     0.442770000000    -0.374022   
O51      O      0.144260000000     0.172530000000     0.536200000000    -0.385543   
O52      O      0.055520000000     0.126230000000     0.532350000000    -0.372442   
O53      O      0.232160000000     0.026900000000     0.538450000000    -0.369152   
O54      O      0.248850000000     0.031310000000     0.479570000000    -0.378201   
O55      O      0.193680000000     0.036940000000     0.599250000000    -0.517049   
O56      O      0.119580000000     0.934980000000     0.558910000000    -0.358822   
O57      O      0.246920000000     0.187670000000     0.544600000000    -0.333056   
O58      O      0.199510000000     0.220300000000     0.463430000000    -0.526242   
O59      O      0.127820000000     0.082260000000     0.535500000000    -0.634677   
O60      O      0.201780000000     0.082710000000     0.504150000000    -0.497718   
O61      O      0.057460000000     0.989540000000     0.516410000000    -0.498382   
O62      O      0.172740000000     0.120230000000     0.437800000000    -0.630488   
O63      O      0.132610000000     0.988210000000     0.484720000000    -0.628709   
O64      O      0.097780000000     0.120970000000     0.469280000000    -0.493546   
O65      O      0.227500000000     0.502270000000     0.018910000000    -0.378315   
O66      O      0.222650000000     0.505780000000     0.957390000000    -0.373762   
O67      O      0.968980000000     0.420850000000     0.030510000000    -0.379253   
O68      O      0.975470000000     0.485940000000     0.051960000000    -0.367912   
O69      O      0.049370000000     0.404420000000     0.941160000000    -0.37803    
O70      O      0.128010000000     0.453460000000     0.916730000000    -0.376681   
O71      O      0.145490000000     0.532270000000     0.099170000000    -0.381734   
O72      O      0.076040000000     0.546170000000     0.093580000000    -0.377036   
O73      O      0.170010000000     0.464560000000     0.082150000000    -0.33509    
O74      O      0.254160000000     0.584390000000     0.064590000000    -0.523843   
O75      O      0.036850000000     0.376780000000     0.020020000000    -0.526098   
O76      O      0.949090000000     0.395990000000     0.958190000000    -0.340012   
O77      O      0.128040000000     0.479050000000     0.991140000000    -0.49809    
O78      O      0.076910000000     0.490240000000     0.036970000000    -0.633199   
O79      O      0.148830000000     0.682500000000     0.011230000000    -0.380118   
O80      O      0.084880000000     0.630470000000     0.048530000000    -0.372688   
O81      O      0.068530000000     0.552730000000     0.866690000000    -0.379395   
O82      O      0.135600000000     0.535480000000     0.873410000000    -0.375838   
O83      O      0.978240000000     0.572730000000     0.948630000000    -0.379164   
O84      O      0.983080000000     0.567320000000     0.010310000000    -0.375741   
O85      O      0.237190000000     0.661760000000     0.930560000000    -0.379001   
O86      O      0.236080000000     0.596700000000     0.913560000000    -0.377627   
O87      O      0.194390000000     0.714180000000     0.947620000000    -0.51685    
O88      O      0.257470000000     0.678720000000     0.016020000000    -0.356779   
O89      O      0.052820000000     0.626750000000     0.888480000000    -0.343605   
O90      O      0.960810000000     0.505310000000     0.895730000000    -0.532158   
O91      O      0.084070000000     0.603900000000     0.975170000000    -0.635168   
O92      O      0.135900000000     0.592570000000     0.928850000000    -0.494968   
O93      O      0.148710000000     0.589790000000     0.033220000000    -0.491775   
O94      O      0.064030000000     0.494770000000     0.933070000000    -0.633854   
O95      O      0.201090000000     0.578580000000     0.986490000000    -0.62872    
O96      O      0.012650000000     0.505490000000     0.979420000000    -0.496067   
O97      O      0.191520000000     0.491860000000     0.547550000000    -0.384944   
O98      O      0.166170000000     0.468900000000     0.490290000000    -0.371218   
O99      O      0.976600000000     0.533070000000     0.542970000000    -0.379182   
O100     O      0.031190000000     0.607600000000     0.559270000000    -0.376113   
O101     O      0.997780000000     0.431310000000     0.485110000000    -0.379082   
O102     O      0.065510000000     0.438890000000     0.455200000000    -0.374409   
O103     O      0.185700000000     0.603450000000     0.604870000000    -0.37682    
O104     O      0.144280000000     0.647290000000     0.590720000000    -0.377473   
O105     O      0.129850000000     0.495740000000     0.608280000000    -0.35794    
O106     O      0.256550000000     0.575040000000     0.582250000000    -0.520572   
O107     O      0.003130000000     0.449460000000     0.567500000000    -0.531516   
O108     O      0.931210000000     0.465820000000     0.493950000000    -0.337194   
O109     O      0.101830000000     0.498190000000     0.518580000000    -0.499806   
O110     O      0.089710000000     0.556070000000     0.553940000000    -0.62915    
O111     O      0.248670000000     0.719690000000     0.505470000000    -0.377444   
O112     O      0.177990000000     0.716570000000     0.528210000000    -0.372697   
O113     O      0.077000000000     0.564500000000     0.378640000000    -0.384603   
O114     O      0.110770000000     0.514760000000     0.395190000000    -0.375872   
O115     O      0.041010000000     0.652920000000     0.443610000000    -0.375011   
O116     O      0.065530000000     0.675690000000     0.500950000000    -0.375985   
O117     O      0.262010000000     0.625040000000     0.434060000000    -0.384916   
O118     O      0.216470000000     0.545110000000     0.432940000000    -0.375658   
O119     O      0.243350000000     0.710980000000     0.424550000000    -0.531239   
O120     O      0.312570000000     0.679090000000     0.493690000000    -0.335969   
O121     O      0.109480000000     0.666840000000     0.384320000000    -0.351894   
O122     O      0.987660000000     0.568540000000     0.403730000000    -0.526931   
O123     O      0.142850000000     0.655880000000     0.469220000000    -0.632273   
O124     O      0.154340000000     0.597360000000     0.434220000000    -0.499922   
O125     O      0.190270000000     0.630040000000     0.532820000000    -0.495074   
O126     O      0.054250000000     0.523870000000     0.454490000000    -0.633217   
O127     O      0.202110000000     0.572950000000     0.498310000000    -0.633834   
O128     O      0.043190000000     0.580740000000     0.489810000000    -0.498742   
O129     O      0.530200000000     0.127680000000     0.942190000000    -0.387957   
O130     O      0.490520000000     0.085740000000     0.993760000000    -0.37406    
O131     O      0.572490000000     0.943510000000     0.909150000000    -0.383196   
O132     O      0.661340000000     0.989540000000     0.910840000000    -0.370378   
O133     O      0.448830000000     0.934550000000     0.976080000000    -0.381439   
O134     O      0.448990000000     0.982090000000     0.015860000000    -0.37745    
O135     O      0.652120000000     0.127230000000     0.879430000000    -0.378971   
O136     O      0.703760000000     0.092560000000     0.890850000000    -0.378178   
O137     O      0.534550000000     0.086920000000     0.875400000000    -0.354567   
O138     O      0.630520000000     0.189680000000     0.913880000000    -0.521914   
O139     O      0.478080000000     0.958090000000     0.898890000000    -0.526054   
O140     O      0.502340000000     0.883020000000     0.964300000000    -0.343592   
O141     O      0.527480000000     0.035500000000     0.957400000000    -0.499908   
O142     O      0.599920000000     0.037510000000     0.922100000000    -0.635907   
O143     O      0.775210000000     0.158430000000     0.999140000000    -0.380763   
O144     O      0.773200000000     0.110470000000     0.958890000000    -0.377604   
O145     O      0.580140000000     0.979530000000     0.094440000000    -0.380398   
O146     O      0.523210000000     0.008610000000     0.081630000000    -0.371033   
O147     O      0.701160000000     0.977910000000     0.029880000000    -0.378755   
O148     O      0.728020000000     0.007550000000     0.972860000000    -0.376564   
O149     O      0.647110000000     0.155740000000     0.059740000000    -0.377001   
O150     O      0.559930000000     0.103110000000     0.062800000000    -0.375796   
O151     O      0.741320000000     0.142670000000     0.073840000000    -0.526415   
O152     O      0.720870000000     0.214440000000     0.002540000000    -0.352961   
O153     O      0.686500000000     0.001180000000     0.096390000000    -0.339225   
O154     O      0.587440000000     0.907140000000     0.051940000000    -0.532527   
O155     O      0.694750000000     0.062460000000     0.013170000000    -0.633478   
O156     O      0.622340000000     0.059800000000     0.048190000000    -0.494596   
O157     O      0.677550000000     0.120380000000     0.955760000000    -0.500553   
O158     O      0.546140000000     0.977030000000     0.015350000000    -0.632895   
O159     O      0.604340000000     0.117320000000     0.991450000000    -0.6328     
O160     O      0.617910000000     0.979580000000     0.979450000000    -0.499642   
O161     O      0.720660000000     0.200780000000     0.435710000000    -0.385435   
O162     O      0.722990000000     0.211220000000     0.495300000000    -0.372502   
O163     O      0.454760000000     0.020720000000     0.449710000000    -0.378741   
O164     O      0.474240000000     0.969440000000     0.427870000000    -0.371948   
O165     O      0.550150000000     0.150690000000     0.509960000000    -0.378066   
O166     O      0.630870000000     0.180910000000     0.539370000000    -0.37732    
O167     O      0.624610000000     0.074930000000     0.369960000000    -0.379806   
O168     O      0.567080000000     0.997960000000     0.385790000000    -0.374478   
O169     O      0.629920000000     0.166300000000     0.381310000000    -0.348015   
O170     O      0.734450000000     0.140740000000     0.391560000000    -0.526504   
O171     O      0.514110000000     0.129500000000     0.429990000000    -0.530375   
O172     O      0.454490000000     0.064380000000     0.508210000000    -0.335072   
O173     O      0.622170000000     0.138250000000     0.469480000000    -0.499881   
O174     O      0.567950000000     0.065280000000     0.431920000000    -0.632141   
O175     O      0.683070000000     0.974580000000     0.468070000000    -0.380291   
O176     O      0.603110000000     0.944390000000     0.437690000000    -0.373294   
O177     O      0.612480000000     0.048130000000     0.606150000000    -0.377294   
O178     O      0.667350000000     0.125790000000     0.590210000000    -0.373893   
O179     O      0.513000000000     0.922950000000     0.539420000000    -0.381638   
O180     O      0.504000000000     0.914450000000     0.478950000000    -0.377008   
O181     O      0.771200000000     0.095790000000     0.537290000000    -0.380113   
O182     O      0.757520000000     0.155550000000     0.549080000000    -0.370835   
O183     O      0.728500000000     0.995250000000     0.537850000000    -0.521511   
O184     O      0.775310000000     0.077040000000     0.461300000000    -0.357267   
O185     O      0.594170000000     0.955140000000     0.596960000000    -0.338646   
O186     O      0.496560000000     0.989220000000     0.581190000000    -0.531371   
O187     O      0.610260000000     0.987010000000     0.506550000000    -0.633963   
O188     O      0.663490000000     0.059520000000     0.544100000000    -0.498967   
O189     O      0.653220000000     0.044900000000     0.441840000000    -0.499964   
O190     O      0.578720000000     0.079590000000     0.534400000000    -0.632019   
O191     O      0.706340000000     0.117500000000     0.479190000000    -0.634953   
O192     O      0.526140000000     0.007850000000     0.496680000000    -0.497474   
O193     O      0.540750000000     0.408020000000     0.056220000000    -0.383318   
O194     O      0.540220000000     0.395950000000     0.997380000000    -0.377851   
O195     O      0.480040000000     0.590420000000     0.005550000000    -0.379426   
O196     O      0.556560000000     0.646330000000     0.030710000000    -0.376742   
O197     O      0.439080000000     0.462300000000     0.947350000000    -0.384898   
O198     O      0.486070000000     0.426630000000     0.937430000000    -0.374342   
O199     O      0.573290000000     0.535910000000     0.111320000000    -0.380537   
O200     O      0.604870000000     0.613540000000     0.091980000000    -0.37335    
O201     O      0.484480000000     0.444710000000     0.091630000000    -0.346818   
O202     O      0.614420000000     0.469410000000     0.111280000000    -0.525715   
O203     O      0.415200000000     0.486060000000     0.014600000000    -0.528868   
O204     O      0.448570000000     0.556830000000     0.932800000000    -0.341964   
O205     O      0.517110000000     0.472860000000     0.006200000000    -0.502597   
O206     O      0.541000000000     0.547030000000     0.038200000000    -0.633971   
O207     O      0.754910000000     0.634320000000     0.041910000000    -0.3849     
O208     O      0.704380000000     0.662440000000     0.059710000000    -0.375586   
O209     O      0.620830000000     0.556760000000     0.881720000000    -0.380683   
O210     O      0.586070000000     0.478800000000     0.901000000000    -0.375192   
O211     O      0.666460000000     0.686170000000     0.938630000000    -0.385944   
O212     O      0.658040000000     0.697710000000     0.995970000000    -0.372285   
O213     O      0.715640000000     0.509240000000     0.979830000000    -0.372762   
O214     O      0.638640000000     0.450250000000     0.957990000000    -0.376321   
O215     O      0.785880000000     0.604300000000     0.987990000000    -0.519438   
O216     O      0.733510000000     0.528400000000     0.062940000000    -0.362125   
O217     O      0.704470000000     0.645820000000     0.895870000000    -0.332111   
O218     O      0.575170000000     0.624510000000     0.886120000000    -0.532654   
O219     O      0.676040000000     0.619320000000     0.986950000000    -0.63627    
O220     O      0.652300000000     0.545550000000     0.954880000000    -0.496642   
O221     O      0.645810000000     0.563080000000     0.053920000000    -0.497783   
O222     O      0.547850000000     0.530090000000     0.939260000000    -0.633792   
O223     O      0.622610000000     0.488640000000     0.021320000000    -0.633421   
O224     O      0.571220000000     0.604460000000     0.971580000000    -0.497135   
O225     O      0.608210000000     0.423790000000     0.508360000000    -0.38231    
O226     O      0.622020000000     0.451060000000     0.449180000000    -0.376834   
O227     O      0.453710000000     0.520530000000     0.527750000000    -0.376092   
O228     O      0.510770000000     0.572330000000     0.567710000000    -0.375402   
O229     O      0.476160000000     0.457090000000     0.434720000000    -0.386281   
O230     O      0.548660000000     0.467530000000     0.409280000000    -0.373873   
O231     O      0.594780000000     0.486680000000     0.605200000000    -0.382116   
O232     O      0.590860000000     0.553300000000     0.611670000000    -0.377654   
O233     O      0.540250000000     0.405000000000     0.565680000000    -0.341365   
O234     O      0.676830000000     0.470870000000     0.573990000000    -0.530993   
O235     O      0.427130000000     0.434080000000     0.501600000000    -0.522525   
O236     O      0.444410000000     0.532730000000     0.444180000000    -0.353068   
O237     O      0.559280000000     0.477920000000     0.486410000000    -0.501388   
O238     O      0.546680000000     0.511310000000     0.540450000000    -0.632717   
O239     O      0.743280000000     0.645700000000     0.567510000000    -0.379671   
O240     O      0.673780000000     0.650340000000     0.584370000000    -0.374982   
O241     O      0.638400000000     0.637550000000     0.391200000000    -0.377786   
O242     O      0.640250000000     0.569890000000     0.384970000000    -0.379467   
O243     O      0.601330000000     0.690440000000     0.484910000000    -0.37961    
O244     O      0.592980000000     0.664920000000     0.544710000000    -0.374831   
O245     O      0.763070000000     0.611730000000     0.457680000000    -0.373902   
O246     O      0.710380000000     0.544240000000     0.430260000000    -0.375244   
O247     O      0.787100000000     0.690660000000     0.500820000000    -0.522081   
O248     O      0.783380000000     0.586230000000     0.536000000000    -0.34988    
O249     O      0.675100000000     0.716810000000     0.432280000000    -0.334813   
O250     O      0.541530000000     0.640680000000     0.415100000000    -0.528774   
O251     O      0.660560000000     0.640930000000     0.507820000000    -0.633301   
O252     O      0.672290000000     0.606790000000     0.453810000000    -0.493255   
O253     O      0.657580000000     0.562860000000     0.554490000000    -0.498157   
O254     O      0.562300000000     0.555350000000     0.439070000000    -0.629371   
O255     O      0.670940000000     0.528710000000     0.499710000000    -0.634579   
O256     O      0.549360000000     0.589520000000     0.495090000000    -0.493286   
Zr1      Zr     0.208000000000     0.060170000000     0.963930000000     1.38015    
Zr2      Zr     0.096950000000     0.093530000000     0.923940000000     1.37369    
Zr3      Zr     0.107570000000     0.959460000000     0.030980000000     1.37835    
Zr4      Zr     0.997530000000     0.992760000000     0.991370000000     1.35679    
Zr5      Zr     0.131040000000     0.086100000000     0.024640000000     1.37668    
Zr6      Zr     0.074500000000     0.968740000000     0.929640000000     1.38359    
Zr7      Zr     0.046060000000     0.962080000000     0.458460000000     1.37215    
Zr8      Zr     0.085900000000     0.091500000000     0.412030000000     1.37752    
Zr9      Zr     0.144360000000     0.017470000000     0.542050000000     1.37031    
Zr10     Zr     0.183690000000     0.146460000000     0.496250000000     1.37959    
Zr11     Zr     0.188670000000     0.054650000000     0.446060000000     1.37573    
Zr12     Zr     0.041620000000     0.055220000000     0.507770000000     1.37609    
Zr13     Zr     0.169940000000     0.527690000000     0.039810000000     1.37653    
Zr14     Zr     0.035300000000     0.444360000000     0.986750000000     1.37949    
Zr15     Zr     0.176860000000     0.638940000000     0.978650000000     1.3735     
Zr16     Zr     0.043050000000     0.556700000000     0.926070000000     1.37809    
Zr17     Zr     0.157320000000     0.530250000000     0.937620000000     1.37538    
Zr18     Zr     0.055430000000     0.552470000000     0.029060000000     1.37503    
Zr19     Zr     0.168970000000     0.552440000000     0.556830000000     1.37649    
Zr20     Zr     0.023750000000     0.503540000000     0.513900000000     1.37542    
Zr21     Zr     0.220720000000     0.649820000000     0.473550000000     1.3794     
Zr22     Zr     0.075540000000     0.601750000000     0.431140000000     1.37783    
Zr23     Zr     0.133870000000     0.520010000000     0.459480000000     1.3777     
Zr24     Zr     0.110940000000     0.633860000000     0.528590000000     1.37702    
Zr25     Zr     0.594420000000     0.105980000000     0.928970000000     1.38043    
Zr26     Zr     0.535510000000     0.967670000000     0.952360000000     1.37994    
Zr27     Zr     0.686720000000     0.130270000000     0.018660000000     1.37485    
Zr28     Zr     0.629630000000     0.991920000000     0.041830000000     1.37716    
Zr29     Zr     0.539280000000     0.045740000000     0.020380000000     1.37492    
Zr30     Zr     0.682310000000     0.050720000000     0.950270000000     1.3812     
Zr31     Zr     0.658040000000     0.119200000000     0.424060000000     1.37812    
Zr32     Zr     0.532900000000     0.082810000000     0.478480000000     1.37837    
Zr33     Zr     0.699500000000     0.042920000000     0.497820000000     1.38361    
Zr34     Zr     0.573550000000     0.005120000000     0.551780000000     1.37505    
Zr35     Zr     0.668790000000     0.134000000000     0.525030000000     1.37859    
Zr36     Zr     0.563350000000     0.990910000000     0.450850000000     1.37703    
Zr37     Zr     0.567150000000     0.490450000000     0.062150000000     1.38066    
Zr38     Zr     0.493610000000     0.531110000000     0.981520000000     1.37733    
Zr39     Zr     0.699880000000     0.561750000000     0.011690000000     1.37507    
Zr40     Zr     0.626670000000     0.602280000000     0.930860000000     1.37954    
Zr41     Zr     0.573320000000     0.473170000000     0.964700000000     1.37862    
Zr42     Zr     0.619820000000     0.619640000000     0.028400000000     1.37823    
Zr43     Zr     0.607080000000     0.482380000000     0.542530000000     1.37877    
Zr44     Zr     0.500790000000     0.508890000000     0.483470000000     1.37699    
Zr45     Zr     0.718940000000     0.609830000000     0.510160000000     1.37958    
Zr46     Zr     0.612150000000     0.635880000000     0.451620000000     1.38182    
Zr47     Zr     0.622730000000     0.525580000000     0.443450000000     1.37876    
Zr48     Zr     0.597630000000     0.592650000000     0.551290000000     1.37812    


