data_structure

_audit_creation_method RASPA-1.0
_audit_creation_date 2023-5-9
_audit_author_name 'Poobodin Mano'

_cell_length_a    44.5289
_cell_length_b    48.4376
_cell_length_c    50.0465
_cell_angle_alpha 90
_cell_angle_beta  90
_cell_angle_gamma 90
_cell_volume      107944

_symmetry_cell_setting          triclinic
_symmetry_space_group_name_Hall 'P 1'
_symmetry_space_group_name_H-M  'P 1'
_symmetry_Int_Tables_number     1

_symmetry_equiv_pos_as_xyz 'x,y,z'

loop_
_atom_site_label
_atom_site_type_symbol
_atom_site_fract_x
_atom_site_fract_y
_atom_site_fract_z
_atom_site_charge
C1       C      0.528870000000     0.062320000000     0.181360000000     0.388522   
C2       C      0.610210000000     0.140540000000     0.314830000000     0.393186   
C3       C      0.619100000000     0.107890000000     0.180040000000     0.388883   
C4       C      0.511310000000     0.095550000000     0.316260000000     0.392861   
C5       C      0.054610000000     0.518840000000     0.339660000000     0.393231   
C6       C      0.171940000000     0.525160000000     0.205890000000     0.391153   
C7       C      0.155610000000     0.559640000000     0.339630000000     0.39407    
C8       C      0.078760000000     0.481970000000     0.207030000000     0.390261   
C9       C      0.125690000000     0.214940000000     0.049680000000     0.390529   
C10      C      0.028400000000     0.366220000000     0.061240000000     0.394158   
C11      C      0.025620000000     0.223600000000     0.081580000000     0.391898   
C12      C      0.131280000000     0.358000000000     0.036240000000     0.391768   
C13      C      0.573290000000     0.361790000000     0.447870000000     0.391184   
C14      C      0.489840000000     0.234260000000     0.530000000000     0.392196   
C15      C      0.545850000000     0.368470000000     0.544190000000     0.395035   
C16      C      0.522880000000     0.225830000000     0.446430000000     0.390441   
C17      C      0.387360000000     0.067840000000     0.950000000000     0.391252   
C18      C      0.258480000000     0.080290000000     0.073170000000     0.390238   
C19      C      0.409370000000     0.079380000000     0.038250000000     0.39335    
C20      C      0.235390000000     0.077550000000     0.984060000000     0.38943    
C21      C      0.252990000000     0.469000000000     0.457860000000     0.392059   
C22      C      0.417650000000     0.498750000000     0.534510000000     0.391636   
C23      C      0.272290000000     0.450200000000     0.553190000000     0.393623   
C24      C      0.399960000000     0.517270000000     0.446030000000     0.387173   
C25      C      0.512390000000     0.483070000000     0.561420000000    -0.0415365  
C26      C      0.473160000000     0.502700000000     0.530610000000    -0.0214604  
C27      C      0.539350000000     0.441280000000     0.549670000000     0.0192945  
C28      C      0.499160000000     0.483680000000     0.535970000000     0.0146491  
C29      C      0.557910000000     0.416750000000     0.557650000000    -0.0231788  
C30      C      0.507240000000     0.463680000000     0.517000000000    -0.0418017  
C31      C      0.527340000000     0.442700000000     0.523770000000    -0.0411311  
C32      C      0.532240000000     0.461930000000     0.568300000000    -0.0463613  
C33      C      0.378200000000     0.176940000000     0.513040000000    -0.0400256  
C34      C      0.362070000000     0.159690000000     0.467620000000    -0.0213866  
C35      C      0.412660000000     0.215600000000     0.518070000000     0.0149857  
C36      C      0.378390000000     0.180240000000     0.485140000000     0.0155728  
C37      C      0.434040000000     0.232240000000     0.535130000000    -0.0205113  
C38      C      0.395530000000     0.201630000000     0.473880000000    -0.0446781  
C39      C      0.412550000000     0.219130000000     0.490200000000    -0.0396991  
C40      C      0.395320000000     0.194350000000     0.529350000000    -0.0440026  
C41      C      0.182460000000     0.472920000000     0.061320000000    -0.0417819  
C42      C      0.207970000000     0.487140000000     0.104230000000    -0.0210175  
C43      C      0.159430000000     0.427680000000     0.056390000000     0.0133731  
C44      C      0.190610000000     0.466640000000     0.087720000000     0.0244433  
C45      C      0.140700000000     0.408050000000     0.039960000000    -0.0212819  
C46      C      0.182620000000     0.440900000000     0.098500000000    -0.0458575  
C47      C      0.166790000000     0.421720000000     0.083090000000    -0.0394627  
C48      C      0.166870000000     0.453670000000     0.045880000000    -0.0404649  
C49      C      0.149730000000     0.095490000000     0.429350000000    -0.0464422  
C50      C      0.192150000000     0.061570000000     0.434910000000    -0.0200053  
C51      C      0.156740000000     0.144170000000     0.438720000000     0.0138197  
C52      C      0.179720000000     0.090280000000     0.436410000000     0.0219244  
C53      C      0.144060000000     0.172750000000     0.440940000000    -0.0185374  
C54      C      0.219770000000     0.140520000000     0.015160000000    -0.036542   
C55      C      0.210670000000     0.157730000000     0.036110000000    -0.0474459  
C56      C      0.138430000000     0.122320000000     0.430180000000    -0.039914   
C57      C      0.451530000000     0.086290000000     0.385640000000    -0.0464827  
C58      C      0.492550000000     0.111590000000     0.360620000000    -0.021303   
C59      C      0.462590000000     0.046290000000     0.413460000000     0.0163694  
C60      C      0.481880000000     0.088280000000     0.378210000000     0.0230084  
C61      C      0.453460000000     0.025340000000     0.434330000000    -0.0216009  
C62      C      0.502460000000     0.069050000000     0.388430000000    -0.0420122  
C63      C      0.492930000000     0.048420000000     0.406030000000    -0.0432378  
C64      C      0.442000000000     0.065660000000     0.403320000000    -0.0361367  
C65      C      0.241910000000     0.516580000000     0.375710000000    -0.0410383  
C66      C      0.204970000000     0.553070000000     0.362250000000    -0.0185786  
C67      C      0.227460000000     0.474630000000     0.399030000000     0.0266616  
C68      C      0.211780000000     0.525010000000     0.374190000000     0.0148636  
C69      C      0.236040000000     0.449100000000     0.414550000000    -0.0212136  
C70      C      0.189390000000     0.507470000000     0.384600000000    -0.0360927  
C71      C      0.197240000000     0.482660000000     0.397130000000    -0.0449834  
C72      C      0.249660000000     0.491620000000     0.387880000000    -0.043995   
C73      C      0.228830000000     0.091100000000     0.159870000000    -0.0495995  
C74      C      0.251520000000     0.105880000000     0.115760000000    -0.0244367  
C75      C      0.235260000000     0.044270000000     0.176480000000     0.0138418  
C76      C      0.247850000000     0.085320000000     0.138200000000     0.022586   
C77      C      0.224500000000     0.021350000000     0.194460000000    -0.0217156  
C78      C      0.261850000000     0.059330000000     0.136720000000    -0.0399288  
C79      C      0.255290000000     0.038850000000     0.155490000000    -0.043325   
C80      C      0.222830000000     0.070820000000     0.178990000000    -0.0343722  
C81      C      0.502070000000     0.092370000000     0.075120000000    -0.0448596  
C82      C      0.464790000000     0.086750000000     0.037400000000    -0.0231191  
C83      C      0.506840000000     0.057640000000     0.109890000000     0.0158012  
C84      C      0.480020000000     0.076420000000     0.062320000000     0.0199641  
C85      C      0.522430000000     0.047220000000     0.134560000000    -0.0219014  
C86      C      0.471280000000     0.051120000000     0.073630000000    -0.042296   
C87      C      0.484530000000     0.041820000000     0.097290000000    -0.0447926  
C88      C      0.515410000000     0.082980000000     0.098680000000    -0.0418419  
C89      C      0.563680000000     0.158450000000     0.378590000000    -0.0419676  
C90      C      0.616150000000     0.161940000000     0.359810000000    -0.0203656  
C91      C      0.534050000000     0.199450000000     0.388250000000     0.0212327  
C92      C      0.587290000000     0.174940000000     0.369140000000     0.0199099  
C93      C      0.506630000000     0.212300000000     0.400800000000    -0.0231144  
C94      C      0.584030000000     0.203790000000     0.369150000000    -0.0437993  
C95      C      0.557670000000     0.215960000000     0.378750000000    -0.0470523  
C96      C      0.537310000000     0.170610000000     0.388110000000    -0.0426502  
C97      C      0.029410000000     0.426190000000     0.408300000000    -0.0407164  
C98      C      0.059520000000     0.382270000000     0.404850000000    -0.0216429  
C99      C      0.030130000000     0.460480000000     0.372900000000     0.020758   
C100     C      0.050630000000     0.410250000000     0.394420000000     0.0147476  
C101     C      0.018170000000     0.486540000000     0.360610000000    -0.0226242  
C102     C      0.061940000000     0.419870000000     0.369940000000    -0.0443212  
C103     C      0.051750000000     0.444810000000     0.359270000000    -0.0407064  
C104     C      0.019400000000     0.451230000000     0.397730000000    -0.0466439  
C105     C      0.535020000000     0.450020000000     0.135060000000    -0.0423717  
C106     C      0.581790000000     0.455370000000     0.162950000000    -0.0225196  
C107     C      0.519800000000     0.405380000000     0.117560000000     0.0162937  
C108     C      0.559900000000     0.437820000000     0.147600000000     0.0177531  
C109     C      0.500650000000     0.388560000000     0.098930000000    -0.0219758  
C110     C      0.564330000000     0.409220000000     0.145370000000    -0.0456685  
C111     C      0.544510000000     0.393140000000     0.130330000000    -0.0389808  
C112     C      0.515220000000     0.433960000000     0.119990000000    -0.0437464  
C113     C      0.561120000000     0.153180000000     0.085650000000    -0.0412875  
C114     C      0.509730000000     0.174040000000     0.093370000000    -0.0207966  
C115     C      0.588190000000     0.129750000000     0.121340000000     0.0166218  
C116     C      0.537590000000     0.159590000000     0.103290000000     0.0244433  
C117     C      0.614650000000     0.112600000000     0.130580000000    -0.0217537  
C118     C      0.539570000000     0.151040000000     0.130020000000    -0.0468566  
C119     C      0.564440000000     0.136000000000     0.138900000000    -0.0378846  
C120     C      0.586130000000     0.138330000000     0.094580000000    -0.0429333  
C121     C      0.501830000000     0.026450000000     0.680450000000     0.393133   
C122     C      0.585970000000     0.066260000000     0.823690000000     0.394438   
C123     C      0.599110000000     0.053680000000     0.686100000000     0.38763    
C124     C      0.484000000000     0.036090000000     0.818030000000     0.39315    
C125     C      0.014820000000     0.447200000000     0.830060000000     0.394173   
C126     C      0.127910000000     0.462880000000     0.697700000000     0.391845   
C127     C      0.113800000000     0.477480000000     0.835670000000     0.391563   
C128     C      0.029750000000     0.433110000000     0.691910000000     0.390018   
C129     C      0.112900000000     0.197960000000     0.473650000000     0.395248   
C130     C      0.128480000000     0.342960000000     0.568290000000     0.392526   
C131     C      0.084070000000     0.204810000000     0.564660000000     0.389206   
C132     C      0.162540000000     0.333730000000     0.475420000000     0.393896   
C133     C      0.600340000000     0.347660000000     0.948950000000     0.392476   
C134     C      0.492330000000     0.213340000000     0.989300000000     0.393021   
C135     C      0.501490000000     0.355090000000     0.972470000000     0.392926   
C136     C      0.592540000000     0.205010000000     0.965290000000     0.390738   
C137     C      0.364430000000     0.108690000000     0.474740000000     0.392344   
C138     C      0.238750000000     0.035180000000     0.572640000000     0.390939   
C139     C      0.382050000000     0.089420000000     0.557260000000     0.390471   
C140     C      0.221610000000     0.047780000000     0.474720000000     0.398127   
C141     C      0.233060000000     0.479190000000     0.987850000000     0.391243   
C142     C      0.409010000000     0.480650000000     0.048880000000     0.387311   
C143     C      0.258090000000     0.490070000000     0.082430000000     0.394366   
C144     C      0.384990000000     0.473810000000     0.956880000000     0.386005   
C145     C      0.502010000000     0.449470000000     0.017490000000    -0.0451791  
C146     C      0.464070000000     0.471530000000     0.047870000000    -0.0197544  
C147     C      0.487930000000     0.419830000000     0.980400000000     0.024247   
C148     C      0.471720000000     0.452460000000     0.024870000000     0.0209576  
C149     C      0.496230000000     0.403190000000     0.956060000000    -0.0194237  
C150     C      0.449620000000     0.438620000000     0.009820000000    -0.033508   
C151     C      0.457710000000     0.422450000000     0.987870000000    -0.0430857  
C152     C      0.510060000000     0.433280000000     0.995520000000    -0.0376755  
C153     C      0.393040000000     0.140770000000     0.945920000000    -0.0431022  
C154     C      0.399130000000     0.101280000000     0.913700000000    -0.0219801  
C155     C      0.433220000000     0.173760000000     0.953390000000     0.0139893  
C156     C      0.410290000000     0.127470000000     0.926310000000     0.0228857  
C157     C      0.445300000000     0.198960000000     0.967260000000    -0.0202845  
C158     C      0.439040000000     0.137570000000     0.920200000000    -0.0457176  
C159     C      0.450330000000     0.160680000000     0.933520000000    -0.0394492  
C160     C      0.404420000000     0.163740000000     0.959390000000    -0.0409994  
C161     C      0.229300000000     0.388280000000     0.531010000000    -0.0411237  
C162     C      0.226280000000     0.424810000000     0.566920000000    -0.0187187  
C163     C      0.196720000000     0.389450000000     0.492010000000     0.0255886  
C164     C      0.215980000000     0.412530000000     0.540810000000     0.0243599  
C165     C      0.187700000000     0.378340000000     0.465000000000    -0.0198329  
C166     C      0.192910000000     0.425110000000     0.526060000000    -0.0366317  
C167     C      0.183440000000     0.413720000000     0.501840000000    -0.0394792  
C168     C      0.220020000000     0.377030000000     0.506650000000    -0.0398252  
C169     C      0.183580000000     0.162310000000     0.985850000000    -0.0466609  
C170     C      0.213940000000     0.122050000000     0.968050000000    -0.023777   
C171     C      0.187680000000     0.177180000000     0.032220000000     0.0144342  
C172     C      0.205800000000     0.142190000000     0.990000000000     0.0165201  
C173     C      0.176870000000     0.194960000000     0.055160000000    -0.0225634  
C174     C      0.198170000000     0.112250000000     0.444440000000    -0.0425038  
C175     C      0.186670000000     0.138970000000     0.445870000000    -0.0401575  
C176     C      0.174820000000     0.179830000000     0.006670000000    -0.0371804  
C177     C      0.430280000000     0.027250000000     0.889390000000    -0.0477674  
C178     C      0.470040000000     0.052840000000     0.863370000000    -0.0204454  
C179     C      0.442380000000     0.986570000000     0.915970000000     0.0188562  
C180     C      0.460120000000     0.028960000000     0.880530000000     0.025454   
C181     C      0.434820000000     0.965120000000     0.936950000000    -0.0203703  
C182     C      0.480860000000     0.008960000000     0.888950000000    -0.0400238  
C183     C      0.472080000000     0.988030000000     0.906520000000    -0.041953   
C184     C      0.421520000000     0.006470000000     0.907150000000    -0.0302309  
C185     C      0.195900000000     0.468720000000     0.894240000000    -0.0412984  
C186     C      0.158840000000     0.457400000000     0.857430000000    -0.0198531  
C187     C      0.193710000000     0.445690000000     0.937420000000     0.0226499  
C188     C      0.171010000000     0.453480000000     0.885330000000     0.0141509  
C189     C      0.206990000000     0.440390000000     0.964670000000    -0.0225883  
C190     C      0.157470000000     0.434410000000     0.902680000000    -0.0399837  
C191     C      0.168700000000     0.430550000000     0.928500000000    -0.0470611  
C192     C      0.207250000000     0.464750000000     0.920020000000    -0.0396329  
C193     C      0.195050000000     0.026240000000     0.660250000000    -0.0498054  
C194     C      0.219820000000     0.044940000000     0.618570000000    -0.0248495  
C195     C      0.194420000000     0.977040000000     0.669960000000     0.0137115  
C196     C      0.212220000000     0.021430000000     0.637200000000     0.0202905  
C197     C      0.180620000000     0.953270000000     0.685020000000    -0.0219022  
C198     C      0.221790000000     0.994370000000     0.631490000000    -0.0415646  
C199     C      0.212610000000     0.972320000000     0.647510000000    -0.0436058  
C200     C      0.186380000000     0.004250000000     0.676580000000    -0.0345237  
C201     C      0.471110000000     0.101840000000     0.600260000000    -0.0475045  
C202     C      0.432250000000     0.110920000000     0.564360000000    -0.0236051  
C203     C      0.484190000000     0.055050000000     0.613480000000     0.0129347  
C204     C      0.451020000000     0.091540000000     0.581060000000     0.0225772  
C205     C      0.500690000000     0.035690000000     0.631850000000    -0.0197027  
C206     C      0.447910000000     0.062820000000     0.578150000000    -0.0436226  
C207     C      0.464000000000     0.044750000000     0.594470000000    -0.0437824  
C208     C      0.487540000000     0.083720000000     0.616360000000    -0.0398878  
C209     C      0.575710000000     0.129570000000     0.884990000000    -0.0429984  
C210     C      0.587600000000     0.080980000000     0.870980000000    -0.0202686  
C211     C      0.610640000000     0.156550000000     0.911480000000     0.0148393  
C212     C      0.595220000000     0.106860000000     0.886060000000     0.0157911  
C213     C      0.617510000000     0.182480000000     0.926700000000    -0.020231   
C214     C      0.622450000000     0.109080000000     0.900020000000    -0.0432229  
C215     C      0.630010000000     0.133730000000     0.912840000000    -0.0422808  
C216     C      0.583310000000     0.154210000000     0.897710000000    -0.0406586  
C217     C      0.053370000000     0.360480000000     0.895610000000    -0.0363366  
C218     C      0.110010000000     0.358410000000     0.900150000000    -0.0235431  
C219     C      0.029480000000     0.388150000000     0.861170000000     0.0162946  
C220     C      0.081940000000     0.367440000000     0.885610000000     0.0154606  
C221     C      0.001810000000     0.401620000000     0.849620000000    -0.0228906  
C222     C      0.083930000000     0.383680000000     0.862460000000    -0.0470721  
C223     C      0.057930000000     0.393670000000     0.850180000000    -0.0371589  
C224     C      0.027420000000     0.371040000000     0.883720000000    -0.047987   
C225     C      0.561390000000     0.371600000000     0.631490000000    -0.0432779  
C226     C      0.533710000000     0.415250000000     0.644000000000    -0.0214248  
C227     C      0.615170000000     0.371620000000     0.623020000000     0.0208728  
C228     C      0.562180000000     0.400010000000     0.637110000000     0.0226265  
C229     C      0.642910000000     0.357090000000     0.612940000000    -0.0215856  
C230     C      0.589710000000     0.414080000000     0.635780000000    -0.0437251  
C231     C      0.615950000000     0.400030000000     0.628600000000    -0.0414531  
C232     C      0.587630000000     0.357550000000     0.624370000000    -0.0380739  
C233     C      0.616130000000     0.120040000000     0.587390000000    -0.0419132  
C234     C      0.578240000000     0.154100000000     0.569310000000    -0.0223211  
C235     C      0.602230000000     0.085530000000     0.620470000000     0.0163956  
C236     C      0.586980000000     0.131110000000     0.588130000000     0.0161267  
C237     C      0.609850000000     0.060910000000     0.637630000000    -0.0222836  
C238     C      0.565690000000     0.119520000000     0.605540000000    -0.043535   
C239     C      0.573290000000     0.096940000000     0.621590000000    -0.0409207  
C240     C      0.623740000000     0.097470000000     0.603480000000    -0.0441171  
C241     C      0.530540000000     0.561990000000     0.180580000000     0.388772   
C242     C      0.611440000000     0.640110000000     0.314240000000     0.393025   
C243     C      0.620800000000     0.607270000000     0.179500000000     0.388795   
C244     C      0.512430000000     0.595130000000     0.315440000000     0.392879   
C245     C      0.053730000000     0.019130000000     0.340320000000     0.393017   
C246     C      0.170540000000     0.026240000000     0.206130000000     0.390982   
C247     C      0.154460000000     0.060210000000     0.340010000000     0.393998   
C248     C      0.077560000000     0.982460000000     0.207590000000     0.390413   
C249     C      0.126900000000     0.715050000000     0.049340000000     0.390701   
C250     C      0.028700000000     0.865710000000     0.061770000000     0.394174   
C251     C      0.027070000000     0.723030000000     0.081830000000     0.3919     
C252     C      0.131470000000     0.858140000000     0.036020000000     0.391851   
C253     C      0.573970000000     0.861860000000     0.447600000000     0.391336   
C254     C      0.489870000000     0.734160000000     0.529010000000     0.39214    
C255     C      0.545670000000     0.868380000000     0.543670000000     0.395133   
C256     C      0.523690000000     0.725870000000     0.445550000000     0.39059    
C257     C      0.387980000000     0.567430000000     0.949740000000     0.391352   
C258     C      0.259340000000     0.579900000000     0.073270000000     0.390109   
C259     C      0.410130000000     0.578850000000     0.037980000000     0.393099   
C260     C      0.236080000000     0.577450000000     0.983920000000     0.389542   
C261     C      0.252660000000     0.969650000000     0.458280000000     0.391967   
C262     C      0.417340000000     0.999140000000     0.535200000000     0.391467   
C263     C      0.271870000000     0.950820000000     0.553780000000     0.393486   
C264     C      0.399830000000     0.017410000000     0.446680000000     0.387343   
C265     C      0.511930000000     0.982820000000     0.561990000000    -0.0415865  
C266     C      0.472860000000     0.003010000000     0.531350000000    -0.0216606  
C267     C      0.538990000000     0.941270000000     0.549640000000     0.0191992  
C268     C      0.498780000000     0.983840000000     0.536510000000     0.0148214  
C269     C      0.557580000000     0.916640000000     0.557270000000    -0.0231826  
C270     C      0.506920000000     0.964160000000     0.517260000000    -0.041796   
C271     C      0.527030000000     0.943090000000     0.523750000000    -0.0411523  
C272     C      0.531790000000     0.961590000000     0.568580000000    -0.0462486  
C273     C      0.378160000000     0.676760000000     0.512260000000    -0.0400514  
C274     C      0.362000000000     0.659290000000     0.466940000000    -0.0214099  
C275     C      0.412640000000     0.715440000000     0.517080000000     0.0149094  
C276     C      0.378300000000     0.679940000000     0.484350000000     0.0156045  
C277     C      0.434070000000     0.732130000000     0.534040000000    -0.0204296  
C278     C      0.395420000000     0.701280000000     0.472970000000    -0.0447806  
C279     C      0.412470000000     0.718850000000     0.489200000000    -0.0396742  
C280     C      0.395310000000     0.694240000000     0.528470000000    -0.0439873  
C281     C      0.181790000000     0.973320000000     0.061500000000    -0.0416803  
C282     C      0.207390000000     0.987360000000     0.104420000000    -0.0208114  
C283     C      0.159220000000     0.927910000000     0.056270000000     0.0132962  
C284     C      0.190130000000     0.966880000000     0.087810000000     0.0244422  
C285     C      0.140640000000     0.908240000000     0.039730000000    -0.0211565  
C286     C      0.182460000000     0.940980000000     0.098410000000    -0.0458316  
C287     C      0.166760000000     0.921790000000     0.082900000000    -0.0393925  
C288     C      0.166320000000     0.954060000000     0.045960000000    -0.0404306  
C289     C      0.150070000000     0.595370000000     0.428950000000    -0.0465007  
C290     C      0.192200000000     0.561160000000     0.434640000000    -0.0200047  
C291     C      0.157330000000     0.643960000000     0.438610000000     0.0137737  
C292     C      0.179950000000     0.589940000000     0.436210000000     0.0219865  
C293     C      0.144830000000     0.672610000000     0.440890000000    -0.0185611  
C294     C      0.220960000000     0.640760000000     0.014500000000    -0.0364031  
C295     C      0.212020000000     0.658110000000     0.035390000000    -0.0474646  
C296     C      0.138950000000     0.622260000000     0.429830000000    -0.0398885  
C297     C      0.452170000000     0.586210000000     0.384810000000    -0.046477   
C298     C      0.493450000000     0.611120000000     0.359760000000    -0.0212133  
C299     C      0.462850000000     0.546120000000     0.412620000000     0.016389   
C300     C      0.482530000000     0.587880000000     0.377310000000     0.0228982  
C301     C      0.453560000000     0.525360000000     0.433600000000    -0.0218322  
C302     C      0.502890000000     0.568420000000     0.387450000000    -0.0420708  
C303     C      0.493170000000     0.547890000000     0.405080000000    -0.0432634  
C304     C      0.442450000000     0.565680000000     0.402520000000    -0.036402   
C305     C      0.241150000000     0.017640000000     0.376430000000    -0.0411783  
C306     C      0.203910000000     0.053690000000     0.362500000000    -0.0186212  
C307     C      0.226920000000     0.975440000000     0.399430000000     0.0265318  
C308     C      0.210920000000     0.025720000000     0.374540000000     0.0147512  
C309     C      0.235630000000     0.949920000000     0.414920000000    -0.0212108  
C310     C      0.188620000000     0.007880000000     0.384630000000    -0.0362709  
C311     C      0.196630000000     0.983130000000     0.397200000000    -0.0449585  
C312     C      0.249040000000     0.992740000000     0.388620000000    -0.043877   
C313     C      0.229960000000     0.590010000000     0.160140000000    -0.0495968  
C314     C      0.252530000000     0.605160000000     0.116090000000    -0.0243674  
C315     C      0.236470000000     0.543070000000     0.176410000000     0.0138776  
C316     C      0.248890000000     0.584410000000     0.138370000000     0.0225717  
C317     C      0.225850000000     0.519950000000     0.194200000000    -0.0217671  
C318     C      0.262900000000     0.558430000000     0.136670000000    -0.0399414  
C319     C      0.256410000000     0.537820000000     0.155300000000    -0.0432054  
C320     C      0.224040000000     0.569590000000     0.179140000000    -0.0343508  
C321     C      0.503550000000     0.591910000000     0.074000000000    -0.0448224  
C322     C      0.465560000000     0.586230000000     0.036860000000    -0.0231562  
C323     C      0.508580000000     0.557500000000     0.109030000000     0.0157317  
C324     C      0.481090000000     0.576040000000     0.061680000000     0.019858   
C325     C      0.524410000000     0.547250000000     0.133650000000    -0.0217377  
C326     C      0.472300000000     0.550940000000     0.073370000000    -0.0421517  
C327     C      0.485860000000     0.541770000000     0.096930000000    -0.0447373  
C328     C      0.517220000000     0.582640000000     0.097450000000    -0.0419497  
C329     C      0.564540000000     0.658310000000     0.377530000000    -0.041998   
C330     C      0.617240000000     0.661530000000     0.359220000000    -0.0203583  
C331     C      0.535220000000     0.699470000000     0.387330000000     0.0212066  
C332     C      0.588420000000     0.674690000000     0.368440000000     0.0199152  
C333     C      0.507810000000     0.712430000000     0.399780000000    -0.0231376  
C334     C      0.585450000000     0.703570000000     0.368700000000    -0.0438573  
C335     C      0.559110000000     0.715870000000     0.378200000000    -0.0469371  
C336     C      0.538190000000     0.670600000000     0.386940000000    -0.0426231  
C337     C      0.030540000000     0.925780000000     0.408380000000    -0.0405976  
C338     C      0.061450000000     0.882390000000     0.404280000000    -0.0217073  
C339     C      0.030260000000     0.960450000000     0.373320000000     0.0208472  
C340     C      0.051900000000     0.910310000000     0.394170000000     0.0147293  
C341     C      0.017750000000     0.986490000000     0.361420000000    -0.022435   
C342     C      0.062720000000     0.920340000000     0.369670000000    -0.044354   
C343     C      0.051970000000     0.945220000000     0.359330000000    -0.0407279  
C344     C      0.019970000000     0.950790000000     0.398150000000    -0.046714   
C345     C      0.533720000000     0.949860000000     0.135410000000    -0.0423746  
C346     C      0.580290000000     0.956040000000     0.163410000000    -0.0223626  
C347     C      0.519330000000     0.904900000000     0.118120000000     0.0163023  
C348     C      0.558730000000     0.938080000000     0.148120000000     0.0176035  
C349     C      0.500570000000     0.887700000000     0.099510000000    -0.0219614  
C350     C      0.563650000000     0.909530000000     0.146080000000    -0.0455911  
C351     C      0.544170000000     0.893080000000     0.131060000000    -0.0391344  
C352     C      0.514270000000     0.933420000000     0.120360000000    -0.0436971  
C353     C      0.562580000000     0.652780000000     0.085500000000    -0.0414588  
C354     C      0.511050000000     0.673280000000     0.093400000000    -0.0209198  
C355     C      0.589760000000     0.629090000000     0.120960000000     0.0166632  
C356     C      0.539000000000     0.658870000000     0.103190000000     0.0245347  
C357     C      0.616330000000     0.612000000000     0.130050000000    -0.0218185  
C358     C      0.541010000000     0.650020000000     0.129830000000    -0.0468685  
C359     C      0.565960000000     0.635010000000     0.138570000000    -0.0379255  
C360     C      0.587680000000     0.637960000000     0.094290000000    -0.0429777  
C361     C      0.501790000000     0.525910000000     0.680060000000     0.393119   
C362     C      0.585810000000     0.566700000000     0.823100000000     0.394611   
C363     C      0.599000000000     0.553620000000     0.685540000000     0.387605   
C364     C      0.484000000000     0.535920000000     0.817610000000     0.393304   
C365     C      0.014230000000     0.947120000000     0.830090000000     0.394564   
C366     C      0.127840000000     0.962970000000     0.697940000000     0.39169    
C367     C      0.113470000000     0.976900000000     0.835960000000     0.391535   
C368     C      0.029450000000     0.933460000000     0.691920000000     0.390039   
C369     C      0.113460000000     0.697840000000     0.473420000000     0.395006   
C370     C      0.128240000000     0.842770000000     0.568360000000     0.392361   
C371     C      0.083620000000     0.704690000000     0.564210000000     0.388955   
C372     C      0.163400000000     0.833510000000     0.475760000000     0.394103   
C373     C      0.599930000000     0.847730000000     0.949080000000     0.392542   
C374     C      0.492900000000     0.712810000000     0.989570000000     0.392765   
C375     C      0.501080000000     0.854670000000     0.973190000000     0.393113   
C376     C      0.593080000000     0.705020000000     0.965110000000     0.390771   
C377     C      0.364460000000     0.608310000000     0.474210000000     0.392373   
C378     C      0.239020000000     0.534540000000     0.572230000000     0.390787   
C379     C      0.382210000000     0.588980000000     0.556790000000     0.390568   
C380     C      0.221740000000     0.547250000000     0.474360000000     0.398037   
C381     C      0.232670000000     0.979170000000     0.988060000000     0.391303   
C382     C      0.408470000000     0.981100000000     0.049180000000     0.387322   
C383     C      0.257520000000     0.990370000000     0.082670000000     0.39419    
C384     C      0.384640000000     0.974200000000     0.957200000000     0.385936   
C385     C      0.501440000000     0.948830000000     0.018320000000    -0.0452569  
C386     C      0.463510000000     0.971860000000     0.048050000000    -0.0198085  
C387     C      0.487240000000     0.919510000000     0.981020000000     0.0241086  
C388     C      0.471120000000     0.952500000000     0.025270000000     0.0208486  
C389     C      0.495500000000     0.902740000000     0.956770000000    -0.0192865  
C390     C      0.448920000000     0.939120000000     0.009930000000    -0.0337559  
C391     C      0.456970000000     0.922750000000     0.988110000000    -0.0432505  
C392     C      0.509460000000     0.932450000000     0.996470000000    -0.0376117  
C393     C      0.393560000000     0.640350000000     0.945790000000    -0.0431103  
C394     C      0.399830000000     0.600930000000     0.913510000000    -0.0219543  
C395     C      0.433810000000     0.673140000000     0.953720000000     0.0140435  
C396     C      0.410960000000     0.627040000000     0.926280000000     0.0228545  
C397     C      0.445810000000     0.698300000000     0.967720000000    -0.0203342  
C398     C      0.439810000000     0.637050000000     0.920450000000    -0.0456275  
C399     C      0.451070000000     0.660080000000     0.933940000000    -0.0395401  
C400     C      0.404900000000     0.663220000000     0.959430000000    -0.0410511  
C401     C      0.229030000000     0.888390000000     0.531950000000    -0.041239   
C402     C      0.225810000000     0.925420000000     0.567360000000    -0.0189915  
C403     C      0.197240000000     0.889390000000     0.492440000000     0.0255919  
C404     C      0.215810000000     0.912890000000     0.541270000000     0.024344   
C405     C      0.188640000000     0.878090000000     0.465400000000    -0.0197316  
C406     C      0.193180000000     0.925510000000     0.526030000000    -0.0366324  
C407     C      0.184050000000     0.913900000000     0.501790000000    -0.0395045  
C408     C      0.220100000000     0.876930000000     0.507590000000    -0.0396592  
C409     C      0.184370000000     0.662200000000     0.985340000000    -0.0465749  
C410     C      0.214630000000     0.621840000000     0.967610000000    -0.023597   
C411     C      0.188910000000     0.677440000000     0.031560000000     0.0144294  
C412     C      0.206710000000     0.642180000000     0.989450000000     0.0164989  
C413     C      0.178220000000     0.695320000000     0.054480000000    -0.0225507  
C414     C      0.198480000000     0.611760000000     0.444450000000    -0.0426042  
C415     C      0.187160000000     0.638550000000     0.445920000000    -0.0401518  
C416     C      0.175770000000     0.679850000000     0.006100000000    -0.0372021  
C417     C      0.430220000000     0.526860000000     0.888930000000    -0.0476793  
C418     C      0.469890000000     0.552640000000     0.862940000000    -0.0205031  
C419     C      0.442530000000     0.486270000000     0.915540000000     0.0186475  
C420     C      0.460070000000     0.528730000000     0.880110000000     0.0254056  
C421     C      0.435070000000     0.464740000000     0.936470000000    -0.0200573  
C422     C      0.480910000000     0.508840000000     0.888570000000    -0.039963   
C423     C      0.472230000000     0.487880000000     0.906150000000    -0.0419117  
C424     C      0.421550000000     0.506030000000     0.906670000000    -0.0301941  
C425     C      0.195690000000     0.968050000000     0.894380000000    -0.04114    
C426     C      0.158430000000     0.956680000000     0.857730000000    -0.0196925  
C427     C      0.193460000000     0.945360000000     0.937720000000     0.0227465  
C428     C      0.170670000000     0.952890000000     0.885630000000     0.0140461  
C429     C      0.206770000000     0.940210000000     0.964990000000    -0.0225075  
C430     C      0.157040000000     0.934030000000     0.903150000000    -0.0399196  
C431     C      0.168310000000     0.930310000000     0.928980000000    -0.0471086  
C432     C      0.207080000000     0.964210000000     0.920170000000    -0.039857   
C433     C      0.194980000000     0.525820000000     0.659760000000    -0.0499184  
C434     C      0.220050000000     0.544370000000     0.618140000000    -0.0248096  
C435     C      0.194370000000     0.476660000000     0.669640000000     0.0136244  
C436     C      0.212340000000     0.520950000000     0.636830000000     0.020384   
C437     C      0.180590000000     0.452870000000     0.684660000000    -0.0217807  
C438     C      0.222010000000     0.493880000000     0.631280000000    -0.0417366  
C439     C      0.212740000000     0.471890000000     0.647330000000    -0.0435407  
C440     C      0.186220000000     0.503880000000     0.676120000000    -0.0344127  
C441     C      0.471020000000     0.601220000000     0.600040000000    -0.04752    
C442     C      0.432410000000     0.610450000000     0.563960000000    -0.0236133  
C443     C      0.484060000000     0.554370000000     0.613090000000     0.0128926  
C444     C      0.451100000000     0.591000000000     0.580650000000     0.0225744  
C445     C      0.500500000000     0.534930000000     0.631420000000    -0.0197126  
C446     C      0.448050000000     0.562300000000     0.577570000000    -0.0437015  
C447     C      0.464040000000     0.544160000000     0.593890000000    -0.0438414  
C448     C      0.487350000000     0.583030000000     0.616140000000    -0.0398692  
C449     C      0.575880000000     0.630220000000     0.884460000000    -0.0431263  
C450     C      0.587360000000     0.581590000000     0.870330000000    -0.0202704  
C451     C      0.611030000000     0.656880000000     0.911040000000     0.0149202  
C452     C      0.595230000000     0.607390000000     0.885420000000     0.0157944  
C453     C      0.618070000000     0.682690000000     0.926400000000    -0.0202962  
C454     C      0.622500000000     0.609400000000     0.899360000000    -0.0431198  
C455     C      0.630250000000     0.633950000000     0.912280000000    -0.0423946  
C456     C      0.583670000000     0.654770000000     0.897280000000    -0.0406116  
C457     C      0.052550000000     0.860910000000     0.895870000000    -0.0364671  
C458     C      0.109230000000     0.858610000000     0.900140000000    -0.0235851  
C459     C      0.028600000000     0.888020000000     0.861070000000     0.0163487  
C460     C      0.081090000000     0.867550000000     0.885620000000     0.0154429  
C461     C      0.000960000000     0.901540000000     0.849500000000    -0.0227574  
C462     C      0.083020000000     0.883340000000     0.862170000000    -0.0469808  
C463     C      0.057000000000     0.893220000000     0.849850000000    -0.0372795  
C464     C      0.026580000000     0.871360000000     0.883930000000    -0.0479234  
C465     C      0.560630000000     0.871950000000     0.631220000000    -0.0434715  
C466     C      0.533300000000     0.915700000000     0.644050000000    -0.0215113  
C467     C      0.614480000000     0.871590000000     0.623140000000     0.0207323  
C468     C      0.561670000000     0.900290000000     0.637150000000     0.0225885  
C469     C      0.642160000000     0.856900000000     0.613150000000    -0.0216634  
C470     C      0.589350000000     0.914130000000     0.636150000000    -0.0438174  
C471     C      0.615510000000     0.899930000000     0.629020000000    -0.0414522  
C472     C      0.586790000000     0.857760000000     0.624150000000    -0.0379408  
C473     C      0.615970000000     0.620020000000     0.586960000000    -0.041928   
C474     C      0.578030000000     0.653940000000     0.568720000000    -0.0221503  
C475     C      0.601990000000     0.585320000000     0.619820000000     0.0164135  
C476     C      0.586740000000     0.630910000000     0.587510000000     0.0160734  
C477     C      0.609640000000     0.560740000000     0.637040000000    -0.0223875  
C478     C      0.565350000000     0.619120000000     0.604700000000    -0.0434967  
C479     C      0.572960000000     0.596540000000     0.620740000000    -0.0409111  
C480     C      0.623580000000     0.597450000000     0.603060000000    -0.0440539  
C481     C      0.032210000000     0.064860000000     0.182530000000     0.388631   
C482     C      0.112130000000     0.141400000000     0.317330000000     0.393073   
C483     C      0.122390000000     0.109960000000     0.182330000000     0.388924   
C484     C      0.013240000000     0.096220000000     0.317710000000     0.392613   
C485     C      0.552990000000     0.518170000000     0.338710000000     0.393086   
C486     C      0.668940000000     0.523360000000     0.204060000000     0.391683   
C487     C      0.653780000000     0.559260000000     0.337470000000     0.394327   
C488     C      0.576300000000     0.479960000000     0.206320000000     0.390612   
C489     C      0.623610000000     0.213660000000     0.049990000000     0.390651   
C490     C      0.525950000000     0.364760000000     0.060800000000     0.394413   
C491     C      0.522890000000     0.221940000000     0.079720000000     0.392016   
C492     C      0.629570000000     0.356830000000     0.037990000000     0.391883   
C493     C      0.072000000000     0.361870000000     0.448750000000     0.391417   
C494     C      0.987070000000     0.235050000000     0.530420000000     0.392539   
C495     C      0.043060000000     0.369270000000     0.544430000000     0.395064   
C496     C      0.021730000000     0.225870000000     0.447390000000     0.39067    
C497     C      0.887910000000     0.068550000000     0.951520000000     0.391337   
C498     C      0.758400000000     0.079990000000     0.074090000000     0.390156   
C499     C      0.909530000000     0.079320000000     0.039980000000     0.393255   
C500     C      0.735700000000     0.077570000000     0.984890000000     0.389624   
C501     C      0.752100000000     0.470040000000     0.456670000000     0.392061   
C502     C      0.915340000000     0.500490000000     0.535710000000     0.39144    
C503     C      0.769790000000     0.451660000000     0.552430000000     0.393425   
C504     C      0.899240000000     0.518370000000     0.446680000000     0.386926   
C505     C      0.009600000000     0.483780000000     0.563170000000    -0.0419684  
C506     C      0.970890000000     0.504520000000     0.532530000000    -0.0216152  
C507     C      0.036650000000     0.442330000000     0.550450000000     0.0189415  
C508     C      0.996680000000     0.485190000000     0.537620000000     0.0152099  
C509     C      0.055080000000     0.417550000000     0.557870000000    -0.023153   
C510     C      0.004910000000     0.465750000000     0.518170000000    -0.0422005  
C511     C      0.024890000000     0.444530000000     0.524510000000    -0.0410241  
C512     C      0.029340000000     0.462400000000     0.569610000000    -0.0460397  
C513     C      0.875620000000     0.178040000000     0.511940000000    -0.0399426  
C514     C      0.860750000000     0.160480000000     0.466310000000    -0.0213721  
C515     C      0.910130000000     0.216600000000     0.517440000000     0.0150095  
C516     C      0.876560000000     0.181160000000     0.484040000000     0.0155937  
C517     C      0.931200000000     0.233210000000     0.534830000000    -0.0204793  
C518     C      0.894070000000     0.202430000000     0.473000000000    -0.0447054  
C519     C      0.910730000000     0.219970000000     0.489560000000    -0.0396242  
C520     C      0.892390000000     0.195500000000     0.528490000000    -0.0440198  
C521     C      0.683070000000     0.471050000000     0.061510000000    -0.0427459  
C522     C      0.707870000000     0.486390000000     0.104380000000    -0.0212291  
C523     C      0.658270000000     0.426480000000     0.057960000000     0.0133287  
C524     C      0.690330000000     0.465660000000     0.088290000000     0.0245815  
C525     C      0.638960000000     0.406820000000     0.042110000000    -0.021163   
C526     C      0.681150000000     0.440650000000     0.099900000000    -0.0461156  
C527     C      0.664900000000     0.421360000000     0.084960000000    -0.0395289  
C528     C      0.667090000000     0.451670000000     0.046540000000    -0.040211   
C529     C      0.649750000000     0.095460000000     0.426570000000    -0.0462962  
C530     C      0.691930000000     0.061310000000     0.432090000000    -0.0198643  
C531     C      0.657380000000     0.144250000000     0.434980000000     0.0139255  
C532     C      0.679880000000     0.090180000000     0.433050000000     0.0221218  
C533     C      0.644820000000     0.172840000000     0.437470000000    -0.0185551  
C534     C      0.718890000000     0.140100000000     0.016460000000    -0.0366251  
C535     C      0.709200000000     0.156980000000     0.037450000000    -0.047446   
C536     C      0.638690000000     0.122370000000     0.427150000000    -0.0398457  
C537     C      0.952490000000     0.087460000000     0.387310000000    -0.0467452  
C538     C      0.994050000000     0.111820000000     0.362100000000    -0.0213681  
C539     C      0.962570000000     0.046920000000     0.414680000000     0.0161953  
C540     C      0.982780000000     0.088600000000     0.379510000000     0.0231444  
C541     C      0.953000000000     0.026240000000     0.435650000000    -0.0215779  
C542     C      0.002800000000     0.068640000000     0.389260000000    -0.0428044  
C543     C      0.992830000000     0.048140000000     0.406810000000    -0.0427829  
C544     C      0.942520000000     0.066970000000     0.404950000000    -0.0362136  
C545     C      0.741010000000     0.517890000000     0.374690000000    -0.041269   
C546     C      0.703430000000     0.553170000000     0.359710000000    -0.0185887  
C547     C      0.727020000000     0.475480000000     0.397450000000     0.0266359  
C548     C      0.710680000000     0.525410000000     0.372080000000     0.0144349  
C549     C      0.735830000000     0.450130000000     0.413160000000    -0.0213433  
C550     C      0.688470000000     0.507190000000     0.381690000000    -0.0359703  
C551     C      0.696640000000     0.482620000000     0.394520000000    -0.04537    
C552     C      0.749070000000     0.493160000000     0.387130000000    -0.0442626  
C553     C      0.727520000000     0.088970000000     0.160490000000    -0.049774   
C554     C      0.751110000000     0.104720000000     0.117080000000    -0.0243731  
C555     C      0.732880000000     0.041550000000     0.175790000000     0.0141367  
C556     C      0.746870000000     0.083620000000     0.138960000000     0.0224302  
C557     C      0.721460000000     0.018220000000     0.192920000000    -0.0218048  
C558     C      0.760580000000     0.057520000000     0.136980000000    -0.0398168  
C559     C      0.753330000000     0.036560000000     0.155020000000    -0.043466   
C560     C      0.720840000000     0.068190000000     0.178910000000    -0.0344993  
C561     C      0.003000000000     0.094720000000     0.075600000000    -0.0449096  
C562     C      0.964910000000     0.087150000000     0.038850000000    -0.0230121  
C563     C      0.010130000000     0.060830000000     0.110820000000     0.0154368  
C564     C      0.981140000000     0.077870000000     0.063650000000     0.0198028  
C565     C      0.026890000000     0.051340000000     0.135240000000    -0.0216261  
C566     C      0.973620000000     0.052580000000     0.075660000000    -0.0422345  
C567     C      0.987940000000     0.044150000000     0.099140000000    -0.0443214  
C568     C      0.017410000000     0.086200000000     0.098970000000    -0.0421608  
C569     C      0.064640000000     0.158600000000     0.380950000000    -0.0418172  
C570     C      0.117250000000     0.162520000000     0.362510000000    -0.0201375  
C571     C      0.034220000000     0.199340000000     0.389630000000     0.0213221  
C572     C      0.088080000000     0.175260000000     0.371420000000     0.0197407  
C573     C      0.006370000000     0.212010000000     0.401620000000    -0.0230967  
C574     C      0.084340000000     0.204060000000     0.370920000000    -0.0436327  
C575     C      0.057660000000     0.216020000000     0.380060000000    -0.0473236  
C576     C      0.037960000000     0.170560000000     0.390020000000    -0.0427313  
C577     C      0.530430000000     0.425370000000     0.407680000000    -0.0404016  
C578     C      0.561690000000     0.382120000000     0.403750000000    -0.021663   
C579     C      0.529860000000     0.459810000000     0.372410000000     0.0208914  
C580     C      0.551840000000     0.409910000000     0.393510000000     0.0147497  
C581     C      0.517200000000     0.485740000000     0.360380000000    -0.0224313  
C582     C      0.562510000000     0.419820000000     0.368920000000    -0.0443748  
C583     C      0.551590000000     0.444580000000     0.358440000000    -0.0408009  
C584     C      0.519690000000     0.450260000000     0.397310000000    -0.0467705  
C585     C      0.037380000000     0.451950000000     0.136120000000    -0.0419987  
C586     C      0.084510000000     0.457800000000     0.163490000000    -0.0223996  
C587     C      0.023170000000     0.407370000000     0.117830000000     0.0165221  
C588     C      0.062980000000     0.440130000000     0.147850000000     0.0176052  
C589     C      0.003790000000     0.390430000000     0.099500000000    -0.0222882  
C590     C      0.068340000000     0.411750000000     0.144730000000    -0.0456156  
C591     C      0.048640000000     0.395510000000     0.129710000000    -0.0389884  
C592     C      0.017730000000     0.435730000000     0.121050000000    -0.0441348  
C593     C      0.064520000000     0.155490000000     0.088170000000    -0.041751   
C594     C      0.012920000000     0.175820000000     0.095960000000    -0.0208854  
C595     C      0.091730000000     0.131980000000     0.123730000000     0.0165441  
C596     C      0.040910000000     0.161590000000     0.105830000000     0.0243225  
C597     C      0.118390000000     0.115040000000     0.132890000000    -0.0216537  
C598     C      0.042890000000     0.152800000000     0.132490000000    -0.0473136  
C599     C      0.067860000000     0.137850000000     0.141280000000    -0.0375891  
C600     C      0.089650000000     0.140770000000     0.097030000000    -0.0427587  
C601     C      0.999650000000     0.028600000000     0.681780000000     0.393097   
C602     C      0.085580000000     0.065750000000     0.825020000000     0.394683   
C603     C      0.097510000000     0.054220000000     0.687270000000     0.387899   
C604     C      0.982950000000     0.037840000000     0.819480000000     0.393474   
C605     C      0.517890000000     0.446370000000     0.829280000000     0.394121   
C606     C      0.631350000000     0.462910000000     0.697350000000     0.391754   
C607     C      0.616170000000     0.478330000000     0.835140000000     0.391412   
C608     C      0.533860000000     0.431550000000     0.691320000000     0.390042   
C609     C      0.614500000000     0.197880000000     0.470960000000     0.395298   
C610     C      0.631730000000     0.342160000000     0.566490000000     0.392617   
C611     C      0.587840000000     0.203850000000     0.562420000000     0.388929   
C612     C      0.664140000000     0.333650000000     0.473290000000     0.394029   
C613     C      0.099230000000     0.347880000000     0.947810000000     0.392645   
C614     C      0.992630000000     0.214050000000     0.992170000000     0.39303    
C615     C      0.001540000000     0.355550000000     0.973410000000     0.392625   
C616     C      0.092120000000     0.205410000000     0.965850000000     0.391024   
C617     C      0.863090000000     0.109580000000     0.474090000000     0.392613   
C618     C      0.735780000000     0.036970000000     0.570840000000     0.390972   
C619     C      0.879460000000     0.090850000000     0.557350000000     0.390004   
C620     C      0.720480000000     0.048260000000     0.472620000000     0.398388   
C621     C      0.733580000000     0.479280000000     0.988330000000     0.39136    
C622     C      0.909230000000     0.480680000000     0.049890000000     0.387535   
C623     C      0.758090000000     0.489490000000     0.082760000000     0.394097   
C624     C      0.885620000000     0.474320000000     0.957730000000     0.38637    
C625     C      0.001990000000     0.449870000000     0.018020000000    -0.045221   
C626     C      0.964280000000     0.471540000000     0.048890000000    -0.0196111  
C627     C      0.987690000000     0.420270000000     0.980970000000     0.0241999  
C628     C      0.971770000000     0.452720000000     0.025650000000     0.0211616  
C629     C      0.995840000000     0.403480000000     0.956690000000    -0.0192708  
C630     C      0.949580000000     0.438870000000     0.010700000000    -0.0332463  
C631     C      0.957520000000     0.422810000000     0.988640000000    -0.043097   
C632     C      0.009910000000     0.433760000000     0.995950000000    -0.0378498  
C633     C      0.893150000000     0.141360000000     0.948700000000    -0.0431047  
C634     C      0.899870000000     0.102570000000     0.915780000000    -0.0220607  
C635     C      0.933060000000     0.174340000000     0.957270000000     0.0141792  
C636     C      0.910720000000     0.128560000000     0.929010000000     0.0230238  
C637     C      0.944760000000     0.199360000000     0.971710000000    -0.0205889  
C638     C      0.939460000000     0.138940000000     0.923370000000    -0.045706   
C639     C      0.950450000000     0.161810000000     0.937260000000    -0.0393302  
C640     C      0.904220000000     0.164080000000     0.962750000000    -0.0411193  
C641     C      0.727790000000     0.388870000000     0.529990000000    -0.0411389  
C642     C      0.723660000000     0.425960000000     0.565270000000    -0.0187501  
C643     C      0.696910000000     0.389730000000     0.489900000000     0.0260119  
C644     C      0.714290000000     0.413350000000     0.539030000000     0.02415    
C645     C      0.688950000000     0.378380000000     0.462720000000    -0.0196375  
C646     C      0.691990000000     0.425890000000     0.523360000000    -0.0363508  
C647     C      0.683460000000     0.414230000000     0.498970000000    -0.0393862  
C648     C      0.719460000000     0.377350000000     0.505490000000    -0.0394994  
C649     C      0.683030000000     0.161910000000     0.986830000000    -0.0466677  
C650     C      0.714090000000     0.122080000000     0.969090000000    -0.0238028  
C651     C      0.686060000000     0.176250000000     0.033430000000     0.0144594  
C652     C      0.705380000000     0.141940000000     0.991110000000     0.0164587  
C653     C      0.674620000000     0.193650000000     0.056400000000    -0.0226448  
C654     C      0.698760000000     0.112180000000     0.440170000000    -0.0421877  
C655     C      0.687500000000     0.139000000000     0.441420000000    -0.0401086  
C656     C      0.673680000000     0.179100000000     0.007700000000    -0.037216   
C657     C      0.930330000000     0.028500000000     0.890700000000    -0.0473718  
C658     C      0.969810000000     0.054720000000     0.864950000000    -0.0200224  
C659     C      0.942890000000     0.987810000000     0.917080000000     0.0190816  
C660     C      0.960190000000     0.030660000000     0.882000000000     0.0253195  
C661     C      0.935510000000     0.966030000000     0.937810000000    -0.02041    
C662     C      0.981190000000     0.010890000000     0.890420000000    -0.0392317  
C663     C      0.972620000000     0.989730000000     0.907820000000    -0.0422091  
C664     C      0.921770000000     0.007480000000     0.908270000000    -0.0303302  
C665     C      0.697760000000     0.469740000000     0.894620000000    -0.0412578  
C666     C      0.661310000000     0.458860000000     0.857210000000    -0.0198409  
C667     C      0.694880000000     0.446180000000     0.937490000000     0.0227738  
C668     C      0.673030000000     0.454590000000     0.885210000000     0.0140816  
C669     C      0.707690000000     0.440560000000     0.964870000000    -0.022482   
C670     C      0.659250000000     0.435280000000     0.902160000000    -0.0399526  
C671     C      0.670060000000     0.431110000000     0.928070000000    -0.0470901  
C672     C      0.708690000000     0.465470000000     0.920500000000    -0.0396309  
C673     C      0.694130000000     0.028320000000     0.658950000000    -0.0500475  
C674     C      0.715870000000     0.047670000000     0.616250000000    -0.0247015  
C675     C      0.696380000000     0.979250000000     0.669060000000     0.0136295  
C676     C      0.710410000000     0.024000000000     0.635290000000     0.0207123  
C677     C      0.684150000000     0.955070000000     0.684570000000    -0.0218649  
C678     C      0.721090000000     0.997300000000     0.629480000000    -0.0412794  
C679     C      0.713740000000     0.975060000000     0.646010000000    -0.0434764  
C680     C      0.687320000000     0.006170000000     0.675750000000    -0.0340673  
C681     C      0.968500000000     0.103590000000     0.600990000000    -0.0475762  
C682     C      0.929560000000     0.112340000000     0.565070000000    -0.023614   
C683     C      0.981490000000     0.056940000000     0.614730000000     0.0128267  
C684     C      0.948180000000     0.093100000000     0.582070000000     0.0225027  
C685     C      0.998170000000     0.037780000000     0.633180000000    -0.019405   
C686     C      0.944880000000     0.064350000000     0.579590000000    -0.0433036  
C687     C      0.961070000000     0.046460000000     0.596020000000    -0.0436565  
C688     C      0.984980000000     0.085630000000     0.617220000000    -0.0395184  
C689     C      0.074870000000     0.128430000000     0.886470000000    -0.0429918  
C690     C      0.087800000000     0.080080000000     0.872430000000    -0.0203573  
C691     C      0.109610000000     0.156300000000     0.912270000000     0.0147409  
C692     C      0.094950000000     0.106130000000     0.887400000000     0.0158166  
C693     C      0.116240000000     0.182570000000     0.927040000000    -0.0201558  
C694     C      0.122340000000     0.108990000000     0.901000000000    -0.0433548  
C695     C      0.129530000000     0.133880000000     0.913550000000    -0.0422325  
C696     C      0.082110000000     0.153310000000     0.898920000000    -0.0407329  
C697     C      0.556510000000     0.359640000000     0.895660000000    -0.0362771  
C698     C      0.613010000000     0.358780000000     0.901800000000    -0.0236466  
C699     C      0.533150000000     0.387680000000     0.861220000000     0.0161369  
C700     C      0.585220000000     0.367450000000     0.886650000000     0.0156071  
C701     C      0.505540000000     0.400740000000     0.849100000000    -0.022697   
C702     C      0.587620000000     0.384300000000     0.863940000000    -0.047184   
C703     C      0.561820000000     0.394050000000     0.851150000000    -0.0369945  
C704     C      0.530730000000     0.369940000000     0.883280000000    -0.0481569  
C705     C      0.057190000000     0.373080000000     0.632750000000    -0.0432375  
C706     C      0.029510000000     0.416910000000     0.644570000000    -0.0210495  
C707     C      0.110970000000     0.372960000000     0.624310000000     0.0207877  
C708     C      0.057990000000     0.401570000000     0.637950000000     0.0224714  
C709     C      0.138810000000     0.358250000000     0.614760000000    -0.0214394  
C710     C      0.085500000000     0.415640000000     0.636340000000    -0.0436032  
C711     C      0.111730000000     0.401470000000     0.629390000000    -0.0414405  
C712     C      0.083440000000     0.358920000000     0.625870000000    -0.0382413  
C713     C      0.111500000000     0.121210000000     0.588600000000    -0.0415208  
C714     C      0.072790000000     0.155520000000     0.572430000000    -0.022032   
C715     C      0.099360000000     0.086600000000     0.622130000000     0.0167201  
C716     C      0.082480000000     0.132360000000     0.590690000000     0.0159533  
C717     C      0.107810000000     0.061840000000     0.638780000000    -0.0222889  
C718     C      0.062150000000     0.120770000000     0.608990000000    -0.0437123  
C719     C      0.070550000000     0.098080000000     0.624570000000    -0.0409966  
C720     C      0.119920000000     0.098540000000     0.604240000000    -0.0443954  
C721     C      0.034050000000     0.564710000000     0.181760000000     0.38882    
C722     C      0.113710000000     0.640830000000     0.316810000000     0.393033   
C723     C      0.124410000000     0.609250000000     0.181860000000     0.388919   
C724     C      0.014560000000     0.595900000000     0.316920000000     0.392309   
C725     C      0.552020000000     0.018500000000     0.339350000000     0.393009   
C726     C      0.667550000000     0.024200000000     0.204330000000     0.391469   
C727     C      0.652710000000     0.059570000000     0.337900000000     0.394034   
C728     C      0.574900000000     0.980490000000     0.206830000000     0.390539   
C729     C      0.624510000000     0.713610000000     0.049720000000     0.390548   
C730     C      0.526030000000     0.864170000000     0.061310000000     0.394355   
C731     C      0.523940000000     0.721280000000     0.079860000000     0.391809   
C732     C      0.629620000000     0.856830000000     0.037980000000     0.39163    
C733     C      0.073310000000     0.861840000000     0.448280000000     0.391409   
C734     C      0.987110000000     0.735130000000     0.529180000000     0.392365   
C735     C      0.043160000000     0.869250000000     0.543640000000     0.395108   
C736     C      0.022750000000     0.725930000000     0.446350000000     0.390539   
C737     C      0.888600000000     0.568160000000     0.951280000000     0.391324   
C738     C      0.759300000000     0.579680000000     0.074130000000     0.390031   
C739     C      0.910360000000     0.578720000000     0.039710000000     0.392742   
C740     C      0.736430000000     0.577510000000     0.984740000000     0.389637   
C741     C      0.751850000000     0.970480000000     0.457210000000     0.391726   
C742     C      0.915180000000     0.000790000000     0.536390000000     0.391313   
C743     C      0.769560000000     0.952080000000     0.553050000000     0.393329   
C744     C      0.899170000000     0.018340000000     0.447350000000     0.387209   
C745     C      0.009310000000     0.983490000000     0.563620000000    -0.041996   
C746     C      0.970720000000     0.004850000000     0.533260000000    -0.0220069  
C747     C      0.036560000000     0.942410000000     0.550160000000     0.0187307  
C748     C      0.996460000000     0.985400000000     0.538070000000     0.0154694  
C749     C      0.055040000000     0.917530000000     0.557160000000    -0.0230288  
C750     C      0.004800000000     0.966370000000     0.518270000000    -0.0423634  
C751     C      0.024830000000     0.945090000000     0.524260000000    -0.0409193  
C752     C      0.029120000000     0.962060000000     0.569690000000    -0.04587    
C753     C      0.875480000000     0.678170000000     0.510940000000    -0.0399836  
C754     C      0.860670000000     0.660180000000     0.465460000000    -0.0213333  
C755     C      0.910080000000     0.716710000000     0.516130000000     0.0149275  
C756     C      0.876460000000     0.681020000000     0.483010000000     0.0155707  
C757     C      0.931220000000     0.733390000000     0.533370000000    -0.0204139  
C758     C      0.894010000000     0.702170000000     0.471800000000    -0.0447104  
C759     C      0.910690000000     0.719820000000     0.488220000000    -0.0396318  
C760     C      0.892280000000     0.695750000000     0.527350000000    -0.0439789  
C761     C      0.682450000000     0.971290000000     0.061730000000    -0.0425957  
C762     C      0.707300000000     0.986570000000     0.104600000000    -0.0210637  
C763     C      0.658000000000     0.926560000000     0.058030000000     0.0132731  
C764     C      0.689850000000     0.965800000000     0.088470000000     0.0245148  
C765     C      0.638790000000     0.906850000000     0.042130000000    -0.0211011  
C766     C      0.680930000000     0.940670000000     0.099980000000    -0.0460871  
C767     C      0.664780000000     0.921350000000     0.084990000000    -0.0395011  
C768     C      0.666570000000     0.951880000000     0.046710000000    -0.0402375  
C769     C      0.650050000000     0.595540000000     0.426080000000    -0.0463265  
C770     C      0.691950000000     0.561110000000     0.431720000000    -0.0197451  
C771     C      0.657960000000     0.644250000000     0.434730000000     0.0138544  
C772     C      0.680100000000     0.590050000000     0.432720000000     0.0220819  
C773     C      0.645560000000     0.672900000000     0.437320000000    -0.0185099  
C774     C      0.719930000000     0.640300000000     0.015970000000    -0.0365264  
C775     C      0.710310000000     0.657230000000     0.036930000000    -0.0474298  
C776     C      0.639180000000     0.622510000000     0.426710000000    -0.0398323  
C777     C      0.953250000000     0.587500000000     0.386410000000    -0.0467498  
C778     C      0.995170000000     0.611450000000     0.361270000000    -0.0214845  
C779     C      0.962830000000     0.546890000000     0.413830000000     0.0161857  
C780     C      0.983560000000     0.588310000000     0.378610000000     0.0230743  
C781     C      0.953040000000     0.526440000000     0.434920000000    -0.0219063  
C782     C      0.003310000000     0.568110000000     0.388340000000    -0.0428498  
C783     C      0.993080000000     0.547730000000     0.405910000000    -0.0428457  
C784     C      0.943020000000     0.567140000000     0.404070000000    -0.0364245  
C785     C      0.740280000000     0.018690000000     0.375510000000    -0.0414247  
C786     C      0.702440000000     0.053490000000     0.360010000000    -0.0186766  
C787     C      0.726550000000     0.976030000000     0.397970000000     0.0264898  
C788     C      0.709890000000     0.025830000000     0.372510000000     0.0143549  
C789     C      0.735490000000     0.950710000000     0.413650000000    -0.0213371  
C790     C      0.687800000000     0.007330000000     0.381800000000    -0.0361321  
C791     C      0.696110000000     0.982830000000     0.394670000000    -0.0453444  
C792     C      0.748500000000     0.994040000000     0.388010000000    -0.0441703  
C793     C      0.728630000000     0.588150000000     0.160630000000    -0.0498084  
C794     C      0.752150000000     0.604180000000     0.117280000000    -0.0244853  
C795     C      0.734100000000     0.540670000000     0.175690000000     0.0141779  
C796     C      0.747950000000     0.582940000000     0.139040000000     0.0225027  
C797     C      0.722810000000     0.517170000000     0.192670000000    -0.0216988  
C798     C      0.761680000000     0.556870000000     0.136900000000    -0.0398595  
C799     C      0.754490000000     0.535810000000     0.154840000000    -0.0433628  
C800     C      0.722020000000     0.567260000000     0.178970000000    -0.0345404  
C801     C      0.004600000000     0.594300000000     0.074390000000    -0.0450026  
C802     C      0.965740000000     0.586520000000     0.038320000000    -0.0231199  
C803     C      0.012040000000     0.560870000000     0.109960000000     0.0152865  
C804     C      0.982320000000     0.577480000000     0.063020000000     0.0197556  
C805     C      0.029060000000     0.551640000000     0.134340000000    -0.0213615  
C806     C      0.974770000000     0.552440000000     0.075490000000    -0.0421547  
C807     C      0.989440000000     0.544240000000     0.098870000000    -0.0442056  
C808     C      0.019370000000     0.585980000000     0.097640000000    -0.0421856  
C809     C      0.065830000000     0.658380000000     0.379950000000    -0.0419112  
C810     C      0.118680000000     0.661960000000     0.362000000000    -0.0202245  
C811     C      0.035720000000     0.699330000000     0.388610000000     0.0213064  
C812     C      0.089550000000     0.674900000000     0.370740000000     0.0198033  
C813     C      0.007870000000     0.712160000000     0.400420000000    -0.0232475  
C814     C      0.086110000000     0.703730000000     0.370400000000    -0.0437039  
C815     C      0.059450000000     0.715860000000     0.379380000000    -0.0472195  
C816     C      0.039170000000     0.670510000000     0.388860000000    -0.0426333  
C817     C      0.530870000000     0.925270000000     0.407910000000    -0.0403662  
C818     C      0.562620000000     0.882360000000     0.403470000000    -0.0219003  
C819     C      0.529550000000     0.959940000000     0.372860000000     0.0209322  
C820     C      0.552320000000     0.910110000000     0.393480000000     0.0148464  
C821     C      0.516520000000     0.985850000000     0.361120000000    -0.0223036  
C822     C      0.562590000000     0.920260000000     0.368840000000    -0.0445047  
C823     C      0.551280000000     0.944980000000     0.358610000000    -0.040768   
C824     C      0.519750000000     0.950120000000     0.397780000000    -0.0467821  
C825     C      0.036500000000     0.951780000000     0.136540000000    -0.0420572  
C826     C      0.083410000000     0.958340000000     0.164050000000    -0.0223512  
C827     C      0.023010000000     0.906920000000     0.118440000000     0.0165192  
C828     C      0.062190000000     0.940330000000     0.148440000000     0.0175726  
C829     C      0.003970000000     0.889660000000     0.100130000000    -0.0223175  
C830     C      0.067970000000     0.912000000000     0.145510000000    -0.0455658  
C831     C      0.048590000000     0.895440000000     0.130500000000    -0.0390535  
C832     C      0.017160000000     0.935240000000     0.121480000000    -0.0441123  
C833     C      0.066460000000     0.655280000000     0.088200000000    -0.0418715  
C834     C      0.014690000000     0.675160000000     0.096150000000    -0.0208797  
C835     C      0.093680000000     0.631280000000     0.123440000000     0.0165801  
C836     C      0.042740000000     0.660930000000     0.105880000000     0.0242968  
C837     C      0.120430000000     0.614370000000     0.132430000000    -0.0216374  
C838     C      0.044670000000     0.651670000000     0.132390000000    -0.0472947  
C839     C      0.069700000000     0.636690000000     0.141010000000    -0.0376916  
C840     C      0.091650000000     0.640550000000     0.096890000000    -0.0427682  
C841     C      0.999420000000     0.528030000000     0.681450000000     0.393084   
C842     C      0.085300000000     0.566260000000     0.824430000000     0.394309   
C843     C      0.097160000000     0.554170000000     0.686700000000     0.388015   
C844     C      0.982870000000     0.537700000000     0.819130000000     0.393502   
C845     C      0.517310000000     0.946270000000     0.829410000000     0.394409   
C846     C      0.631120000000     0.963000000000     0.697610000000     0.39184    
C847     C      0.615790000000     0.977810000000     0.835450000000     0.391356   
C848     C      0.533410000000     0.931850000000     0.691410000000     0.389907   
C849     C      0.615020000000     0.697900000000     0.470680000000     0.395147   
C850     C      0.631360000000     0.842060000000     0.566590000000     0.392498   
C851     C      0.587610000000     0.703720000000     0.561980000000     0.388955   
C852     C      0.664630000000     0.833680000000     0.473590000000     0.393745   
C853     C      0.098750000000     0.847990000000     0.947830000000     0.39229    
C854     C      0.993370000000     0.713510000000     0.992660000000     0.392936   
C855     C      0.001120000000     0.855110000000     0.974210000000     0.39275    
C856     C      0.092800000000     0.705470000000     0.965680000000     0.390828   
C857     C      0.863080000000     0.609330000000     0.473530000000     0.392585   
C858     C      0.735890000000     0.536510000000     0.570340000000     0.39075    
C859     C      0.879520000000     0.590510000000     0.556910000000     0.390075   
C860     C      0.720540000000     0.547930000000     0.472180000000     0.398493   
C861     C      0.733180000000     0.979230000000     0.988560000000     0.39133    
C862     C      0.908700000000     0.981180000000     0.050220000000     0.387627   
C863     C      0.757520000000     0.989760000000     0.083020000000     0.394049   
C864     C      0.885280000000     0.974740000000     0.958070000000     0.386041   
C865     C      0.001420000000     0.949200000000     0.018870000000    -0.0453348  
C866     C      0.963720000000     0.971920000000     0.049070000000    -0.0196664  
C867     C      0.986940000000     0.919940000000     0.981610000000     0.0241136  
C868     C      0.971150000000     0.952780000000     0.026050000000     0.021065   
C869     C      0.995020000000     0.902990000000     0.957430000000    -0.0193416  
C870     C      0.948850000000     0.939430000000     0.010820000000    -0.0335629  
C871     C      0.956730000000     0.923140000000     0.988900000000    -0.0432709  
C872     C      0.009270000000     0.932880000000     0.996920000000    -0.0377824  
C873     C      0.893800000000     0.640910000000     0.948840000000    -0.0431273  
C874     C      0.900690000000     0.602330000000     0.915730000000    -0.0219437  
C875     C      0.933770000000     0.673670000000     0.957960000000     0.0141854  
C876     C      0.911510000000     0.628190000000     0.929200000000     0.0230298  
C877     C      0.945360000000     0.698610000000     0.972600000000    -0.0205838  
C878     C      0.940350000000     0.638500000000     0.923860000000    -0.0456948  
C879     C      0.951300000000     0.661240000000     0.937990000000    -0.0393132  
C880     C      0.904830000000     0.663490000000     0.963130000000    -0.0411292  
C881     C      0.727690000000     0.889090000000     0.530700000000    -0.0411829  
C882     C      0.723400000000     0.926360000000     0.565780000000    -0.0188836  
C883     C      0.697190000000     0.889850000000     0.490390000000     0.0260032  
C884     C      0.714200000000     0.913640000000     0.539540000000     0.0241465  
C885     C      0.689470000000     0.878440000000     0.463170000000    -0.019599   
C886     C      0.692080000000     0.926180000000     0.523660000000    -0.0363743  
C887     C      0.683730000000     0.914430000000     0.499260000000    -0.0393949  
C888     C      0.719550000000     0.877480000000     0.506190000000    -0.0394515  
C889     C      0.683780000000     0.661820000000     0.986430000000    -0.0466529  
C890     C      0.714860000000     0.621970000000     0.968740000000    -0.0238114  
C891     C      0.687050000000     0.676400000000     0.032940000000     0.0144282  
C892     C      0.706250000000     0.641950000000     0.990690000000     0.0164825  
C893     C      0.675650000000     0.693830000000     0.055910000000    -0.0225979  
C894     C      0.699080000000     0.611920000000     0.440000000000    -0.0422085  
C895     C      0.687990000000     0.638800000000     0.441300000000    -0.0400644  
C896     C      0.674510000000     0.679080000000     0.007270000000    -0.0372444  
C897     C      0.930220000000     0.528120000000     0.890270000000    -0.0474387  
C898     C      0.969590000000     0.554570000000     0.864580000000    -0.0200922  
C899     C      0.943020000000     0.487510000000     0.916660000000     0.0188066  
C900     C      0.960100000000     0.530470000000     0.881640000000     0.0253296  
C901     C      0.935750000000     0.465620000000     0.937290000000    -0.0200118  
C902     C      0.981220000000     0.510840000000     0.890120000000    -0.0391471  
C903     C      0.972760000000     0.489630000000     0.907490000000    -0.0421184  
C904     C      0.921770000000     0.507030000000     0.907790000000    -0.0301199  
C905     C      0.697520000000     0.969120000000     0.894770000000    -0.04117    
C906     C      0.660870000000     0.958200000000     0.857520000000    -0.0197557  
C907     C      0.694620000000     0.945860000000     0.937790000000     0.0227982  
C908     C      0.672660000000     0.954050000000     0.885510000000     0.0140453  
C909     C      0.707470000000     0.940370000000     0.965170000000    -0.0224018  
C910     C      0.658790000000     0.934940000000     0.902620000000    -0.0399477  
C911     C      0.669650000000     0.930880000000     0.928530000000    -0.0470769  
C912     C      0.708500000000     0.964950000000     0.920650000000    -0.0397345  
C913     C      0.693960000000     0.528040000000     0.658370000000    -0.0501745  
C914     C      0.715900000000     0.547300000000     0.615710000000    -0.0247805  
C915     C      0.696400000000     0.479010000000     0.668660000000     0.0135588  
C916     C      0.710410000000     0.523690000000     0.634810000000     0.0209031  
C917     C      0.684300000000     0.454790000000     0.684170000000    -0.0219016  
C918     C      0.721250000000     0.497020000000     0.629150000000    -0.0414661  
C919     C      0.713920000000     0.474820000000     0.645720000000    -0.0433918  
C920     C      0.687150000000     0.505910000000     0.675220000000    -0.0339489  
C921     C      0.968230000000     0.603010000000     0.600890000000    -0.0474774  
C922     C      0.929620000000     0.611940000000     0.564730000000    -0.0235427  
C923     C      0.981180000000     0.556280000000     0.614420000000     0.0129513  
C924     C      0.948140000000     0.592620000000     0.581720000000     0.022393   
C925     C      0.997780000000     0.537020000000     0.632820000000    -0.0195513  
C926     C      0.944930000000     0.563890000000     0.579030000000    -0.0432501  
C927     C      0.960980000000     0.545900000000     0.595460000000    -0.0438209  
C928     C      0.984580000000     0.584960000000     0.617130000000    -0.0397899  
C929     C      0.075000000000     0.629170000000     0.885980000000    -0.0430385  
C930     C      0.087470000000     0.580770000000     0.871770000000    -0.0203031  
C931     C      0.110040000000     0.656690000000     0.911830000000     0.0148466  
C932     C      0.094910000000     0.606730000000     0.886760000000     0.0157578  
C933     C      0.116900000000     0.682820000000     0.926730000000    -0.0202675  
C934     C      0.122370000000     0.609360000000     0.900290000000    -0.0431943  
C935     C      0.129800000000     0.634140000000     0.912940000000    -0.0423858  
C936     C      0.082470000000     0.653940000000     0.898530000000    -0.0406939  
C937     C      0.555850000000     0.859910000000     0.895950000000    -0.0364612  
C938     C      0.612390000000     0.858980000000     0.901910000000    -0.0237946  
C939     C      0.532440000000     0.887570000000     0.861240000000     0.0160774  
C940     C      0.584550000000     0.867550000000     0.886770000000     0.0156987  
C941     C      0.504840000000     0.900620000000     0.849110000000    -0.0226813  
C942     C      0.586910000000     0.884110000000     0.863860000000    -0.0472074  
C943     C      0.561090000000     0.893760000000     0.851030000000    -0.0369597  
C944     C      0.530060000000     0.870110000000     0.883520000000    -0.0479726  
C945     C      0.056520000000     0.873480000000     0.632350000000    -0.0433697  
C946     C      0.029260000000     0.917430000000     0.644520000000    -0.0211933  
C947     C      0.110380000000     0.872890000000     0.624370000000     0.0207041  
C948     C      0.057610000000     0.901890000000     0.637890000000     0.0224603  
C949     C      0.138150000000     0.857980000000     0.614940000000    -0.0215044  
C950     C      0.085300000000     0.915690000000     0.636670000000    -0.0436661  
C951     C      0.111440000000     0.901330000000     0.629780000000    -0.0414573  
C952     C      0.082670000000     0.859120000000     0.625520000000    -0.0382606  
C953     C      0.110880000000     0.621170000000     0.588090000000    -0.0415239  
C954     C      0.072110000000     0.655410000000     0.571910000000    -0.0219699  
C955     C      0.098740000000     0.586420000000     0.621480000000     0.0167301  
C956     C      0.081790000000     0.632200000000     0.590100000000     0.0159513  
C957     C      0.107260000000     0.561690000000     0.638160000000    -0.0223388  
C958     C      0.061430000000     0.620460000000     0.608270000000    -0.043664   
C959     C      0.069860000000     0.597770000000     0.623830000000    -0.0410066  
C960     C      0.119330000000     0.598490000000     0.603710000000    -0.0443648  
H1       H      0.557420000000     0.122560000000     0.281850000000     0.208094   
H2       H      0.156350000000     0.080250000000     0.222660000000     0.202214   
H3       H      0.116840000000     0.519480000000     0.313310000000     0.207793   
H4       H      0.536830000000     0.523620000000     0.222240000000     0.204346   
H5       H      0.175870000000     0.129820000000     0.250080000000     0.124525   
H6       H      0.208280000000     0.079220000000     0.265220000000     0.184495   
H7       H      0.166930000000     0.488320000000     0.267640000000     0.147489   
H8       H      0.101990000000     0.466720000000     0.306110000000     0.195626   
H9       H      0.508630000000     0.491370000000     0.268140000000     0.126834   
H10      H      0.476400000000     0.542490000000     0.250270000000     0.185776   
H11      H      0.520950000000     0.126780000000     0.220710000000     0.146071   
H12      H      0.576450000000     0.167120000000     0.252040000000     0.200084   
H13      H      0.111770000000     0.459480000000     0.274600000000     0.202604   
H14      H      0.465490000000     0.574660000000     0.242820000000     0.202872   
H15      H      0.574300000000     0.156320000000     0.220350000000     0.202587   
H16      H      0.218090000000     0.049580000000     0.280060000000     0.201778   
H17      H      0.084780000000     0.331010000000     0.064360000000     0.20899    
H18      H      0.495470000000     0.249150000000     0.035510000000     0.203648   
H19      H      0.533470000000     0.339470000000     0.489460000000     0.205725   
H20      H      0.082370000000     0.240150000000     0.450890000000     0.20693    
H21      H      0.467570000000     0.294280000000     0.067960000000     0.12538    
H22      H      0.445900000000     0.293820000000     0.015880000000     0.185972   
H23      H      0.473150000000     0.305750000000     0.501780000000     0.145071   
H24      H      0.497960000000     0.327590000000     0.446250000000     0.196308   
H25      H      0.079420000000     0.281410000000     0.407540000000     0.12492    
H26      H      0.143330000000     0.262910000000     0.423310000000     0.18544    
H27      H      0.149060000000     0.284780000000     0.088190000000     0.141006   
H28      H      0.057860000000     0.318520000000     0.114000000000     0.199371   
H29      H      0.485540000000     0.295080000000     0.448640000000     0.199936   
H30      H      0.175260000000     0.255680000000     0.439530000000     0.194596   
H31      H      0.066670000000     0.284960000000     0.115050000000     0.211448   
H32      H      0.438090000000     0.284230000000     0.984500000000     0.203107   
H33      H      0.281700000000     0.089150000000     0.018790000000     0.205441   
H34      H      0.380880000000     0.531060000000     0.062950000000     0.203729   
H35      H      0.300610000000     0.457610000000     0.499050000000     0.207895   
H36      H      0.349180000000     0.053410000000     0.448310000000     0.200318   
H37      H      0.341940000000     0.563830000000     0.105980000000     0.127847   
H38      H      0.348060000000     0.504080000000     0.113700000000     0.184516   
H39      H      0.373110000000     0.440690000000     0.510840000000     0.147125   
H40      H      0.327430000000     0.435950000000     0.454440000000     0.197034   
H41      H      0.315150000000     0.019800000000     0.409690000000     0.123703   
H42      H      0.294450000000     0.075830000000     0.419260000000     0.182841   
H43      H      0.327480000000     0.119890000000     0.985040000000     0.139864   
H44      H      0.309640000000     0.129200000000     0.045480000000     0.194234   
H45      H      0.363210000000     0.446250000000     0.456770000000     0.201211   
H46      H      0.283370000000     0.106440000000     0.431280000000     0.199152   
H47      H      0.345390000000     0.129840000000     0.035270000000     0.19998    
H48      H      0.346580000000     0.469600000000     0.111550000000     0.202248   
H49      H      0.465340000000     0.369370000000     0.950190000000     0.0971822  
H50      H      0.480520000000     0.468130000000     0.064260000000     0.029807   
H51      H      0.470670000000     0.506690000000     0.508820000000     0.0454048  
H52      H      0.541250000000     0.461220000000     0.588390000000     0.0382072  
H53      H      0.506270000000     0.498190000000     0.576350000000     0.0369132  
H54      H      0.577370000000     0.414970000000     0.543850000000     0.0527487  
H55      H      0.496980000000     0.463600000000     0.497380000000     0.0387144  
H56      H      0.532600000000     0.426910000000     0.509160000000     0.045022   
H57      H      0.567140000000     0.419740000000     0.578080000000     0.03905    
H58      H      0.431150000000     0.453490000000     0.074270000000     0.0947436  
H59      H      0.478540000000     0.172490000000     0.986570000000     0.101552   
H60      H      0.374530000000     0.102430000000     0.910010000000     0.0451693  
H61      H      0.361690000000     0.166900000000     0.446540000000     0.0343341  
H62      H      0.395610000000     0.190800000000     0.550720000000     0.0377637  
H63      H      0.365460000000     0.160340000000     0.522110000000     0.0424401  
H64      H      0.434290000000     0.254100000000     0.528320000000     0.0426163  
H65      H      0.396360000000     0.204390000000     0.452410000000     0.0372136  
H66      H      0.426290000000     0.234970000000     0.481040000000     0.0401183  
H67      H      0.426390000000     0.232190000000     0.556270000000     0.0348615  
H68      H      0.428920000000     0.071790000000     0.931770000000     0.101434   
H69      H      0.203140000000     0.337290000000     0.455350000000     0.0950757  
H70      H      0.214470000000     0.444500000000     0.571550000000     0.0435572  
H71      H      0.200920000000     0.485450000000     0.125480000000     0.0324218  
H72      H      0.160170000000     0.459200000000     0.025820000000     0.0372768  
H73      H      0.187970000000     0.492790000000     0.052690000000     0.0548706  
H74      H      0.116760000000     0.410800000000     0.045730000000     0.0477921  
H75      H      0.188480000000     0.435750000000     0.118910000000     0.0388513  
H76      H      0.160220000000     0.402290000000     0.092060000000     0.040171   
H77      H      0.142300000000     0.413270000000     0.018350000000     0.0423309  
H78      H      0.272190000000     0.415530000000     0.577600000000     0.0963119  
H79      H      0.134450000000     0.174240000000     0.059610000000     0.099685   
H80      H      0.176710000000     0.048190000000     0.423290000000     0.0339111  
H81      H      0.214300000000     0.062030000000     0.424640000000     0.0455132  
H82      H      0.115290000000     0.126000000000     0.424520000000     0.0385117  
H83      H      0.135090000000     0.078840000000     0.423090000000     0.0392233  
H84      H      0.162200000000     0.188100000000     0.444630000000     0.0411531  
H85      H      0.237300000000     0.125500000000     0.018810000000     0.0361527  
H86      H      0.221320000000     0.155550000000     0.055460000000     0.0370371  
H87      H      0.133510000000     0.178490000000     0.421610000000     0.033136   
H88      H      0.190290000000     0.087790000000     0.985440000000     0.102358   
H89      H      0.420170000000     0.502550000000     0.411440000000     0.0984492  
H90      H      0.478770000000     0.130240000000     0.364820000000     0.0320591  
H91      H      0.516390000000     0.116490000000     0.365050000000     0.0459052  
H92      H      0.418640000000     0.065130000000     0.409320000000     0.0428561  
H93      H      0.435310000000     0.101080000000     0.378190000000     0.0380134  
H94      H      0.469360000000     0.007640000000     0.433610000000     0.0323593  
H95      H      0.526460000000     0.569490000000     0.382170000000     0.050914   
H96      H      0.509470000000     0.533630000000     0.413290000000     0.0350771  
H97      H      0.455550000000     0.034990000000     0.454380000000     0.0508412  
H98      H      0.468260000000     0.606170000000     0.323320000000     0.0982677  
H99      H      0.211890000000     0.949760000000     0.452420000000     0.0981577  
H100     H      0.215700000000     0.069510000000     0.374690000000     0.0311351  
H101     H      0.215050000000     0.554300000000     0.341960000000     0.0447187  
H102     H      0.273030000000     0.485710000000     0.388880000000     0.054956   
H103     H      0.259580000000     0.529590000000     0.367770000000     0.0332239  
H104     H      0.220890000000     0.431890000000     0.408680000000     0.0312576  
H105     H      0.165880000000     0.513040000000     0.383740000000     0.0415204  
H106     H      0.179760000000     0.469900000000     0.405730000000     0.0397753  
H107     H      0.259480000000     0.442770000000     0.409890000000     0.0433807  
H108     H      0.161910000000     0.066220000000     0.380400000000     0.0968659  
H109     H      0.187600000000     0.509090000000     0.170190000000     0.0994085  
H110     H      0.238360000000     0.124900000000     0.119920000000     0.0331993  
H111     H      0.275620000000     0.111600000000     0.114110000000     0.048962   
H112     H      0.207400000000     0.075490000000     0.195100000000     0.0325294  
H113     H      0.217890000000     0.110990000000     0.161580000000     0.0393629  
H114     H      0.236680000000     0.001880000000     0.189880000000     0.0336285  
H115     H      0.277970000000     0.553660000000     0.120350000000     0.0494815  
H116     H      0.266270000000     0.517540000000     0.152750000000     0.0385924  
H117     H      0.229210000000     0.026880000000     0.215610000000     0.0441507  
H118     H      0.218050000000     0.590880000000     0.089230000000     0.0999491  
H119     H      0.489940000000     0.069070000000     0.159360000000     0.0979945  
H120     H      0.476740000000     0.105170000000     0.029480000000     0.0364841  
H121     H      0.465240000000     0.070290000000     0.021930000000     0.0514458  
H122     H      0.532720000000     0.095260000000     0.108040000000     0.0455877  
H123     H      0.508990000000     0.112050000000     0.066900000000     0.0388613  
H124     H      0.518550000000     0.024690000000     0.137080000000     0.0361177  
H125     H      0.454790000000     0.538540000000     0.064330000000     0.044726   
H126     H      0.478840000000     0.522290000000     0.105550000000     0.036197   
H127     H      0.547090000000     0.049780000000     0.131910000000     0.0495743  
H128     H      0.432230000000     0.611690000000     0.055840000000     0.0993826  
H129     H      0.000470000000     0.189080000000     0.438030000000     0.0998842  
H130     H      0.635240000000     0.174330000000     0.367640000000     0.031195   
H131     H      0.618350000000     0.140490000000     0.367550000000     0.0477037  
H132     H      0.519610000000     0.157570000000     0.395920000000     0.0373174  
H133     H      0.565840000000     0.136180000000     0.378980000000     0.0455157  
H134     H      0.504880000000     0.234570000000     0.395590000000     0.0476845  
H135     H      0.102250000000     0.217270000000     0.363780000000     0.0352296  
H136     H      0.055470000000     0.238280000000     0.379970000000     0.0457865  
H137     H      0.486340000000     0.201680000000     0.392940000000     0.0332245  
H138     H      0.128280000000     0.180890000000     0.324530000000     0.0980499  
H139     H      0.543410000000     0.517640000000     0.379210000000     0.0974106  
H140     H      0.541750000000     0.368310000000     0.402880000000     0.0473517  
H141     H      0.076680000000     0.372390000000     0.391850000000     0.0422988  
H142     H      0.002820000000     0.463080000000     0.408660000000     0.0365192  
H143     H      0.020270000000     0.419020000000     0.427130000000     0.0392253  
H144     H      0.010700000000     0.482230000000     0.339820000000     0.0510758  
H145     H      0.078190000000     0.407840000000     0.358820000000     0.0377569  
H146     H      0.060320000000     0.451640000000     0.340130000000     0.0444399  
H147     H      0.998070000000     0.493680000000     0.371860000000     0.0355626  
H148     H      0.583000000000     0.402290000000     0.437620000000     0.100157   
H149     H      0.020990000000     0.408390000000     0.063280000000     0.101813   
H150     H      0.604540000000     0.445950000000     0.162050000000     0.0385     
H151     H      0.583170000000     0.476250000000     0.153770000000     0.0501734  
H152     H      0.496650000000     0.443890000000     0.109850000000     0.0353232  
H153     H      0.531210000000     0.472050000000     0.136580000000     0.0385875  
H154     H      0.497080000000     0.367550000000     0.107290000000     0.048776   
H155     H      0.087940000000     0.402250000000     0.153660000000     0.0380881  
H156     H      0.053510000000     0.373780000000     0.126990000000     0.0354047  
H157     H      0.478230000000     0.398440000000     0.096860000000     0.0361307  
H158     H      0.067090000000     0.441140000000     0.200540000000     0.100591   
H159     H      0.136940000000     0.144090000000     0.160940000000     0.0994545  
H160     H      0.008990000000     0.171190000000     0.074460000000     0.044388   
H161     H      0.489920000000     0.166040000000     0.104480000000     0.0330317  
H162     H      0.603730000000     0.133240000000     0.080490000000     0.0376072  
H163     H      0.559920000000     0.159250000000     0.064850000000     0.0548823  
H164     H      0.608060000000     0.090470000000     0.130510000000     0.0503024  
H165     H      0.521520000000     0.155470000000     0.143890000000     0.0396977  
H166     H      0.564870000000     0.129040000000     0.159450000000     0.0456114  
H167     H      0.633640000000     0.115250000000     0.116380000000     0.0350677  
H168     H      0.006800000000     0.213580000000     0.118310000000     0.0991697  
H169     H      0.532870000000     0.060060000000     0.788060000000     0.206695   
H170     H      0.122480000000     0.015430000000     0.722660000000     0.202447   
H171     H      0.071650000000     0.447660000000     0.802690000000     0.210245   
H172     H      0.500220000000     0.475750000000     0.713990000000     0.202097   
H173     H      0.148580000000     0.057500000000     0.757030000000     0.124881   
H174     H      0.172380000000     0.001640000000     0.763740000000     0.184755   
H175     H      0.117850000000     0.418510000000     0.753360000000     0.14679    
H176     H      0.042420000000     0.393560000000     0.781560000000     0.201923   
H177     H      0.466600000000     0.441850000000     0.755840000000     0.125905   
H178     H      0.443510000000     0.492520000000     0.743270000000     0.1844     
H179     H      0.501100000000     0.079570000000     0.732890000000     0.146592   
H180     H      0.557140000000     0.105770000000     0.765520000000     0.197532   
H181     H      0.061960000000     0.397580000000     0.753280000000     0.202885   
H182     H      0.434490000000     0.526050000000     0.744430000000     0.204526   
H183     H      0.557720000000     0.101720000000     0.732320000000     0.201464   
H184     H      0.177480000000     0.969600000000     0.775440000000     0.202264   
H185     H      0.148880000000     0.303090000000     0.526370000000     0.209599   
H186     H      0.545170000000     0.249020000000     0.561390000000     0.202277   
H187     H      0.544180000000     0.317740000000     0.954290000000     0.207882   
H188     H      0.122200000000     0.240010000000     0.000740000000     0.203682   
H189     H      0.575800000000     0.281950000000     0.605670000000     0.124573   
H190     H      0.515730000000     0.299100000000     0.591810000000     0.185018   
H191     H      0.504820000000     0.264040000000     0.935490000000     0.146253   
H192     H      0.565590000000     0.289010000000     0.911090000000     0.197447   
H193     H      0.153400000000     0.269410000000     0.959700000000     0.124671   
H194     H      0.179160000000     0.279000000000     0.013010000000     0.186187   
H195     H      0.184930000000     0.241270000000     0.491820000000     0.14124    
H196     H      0.167020000000     0.276390000000     0.573350000000     0.199938   
H197     H      0.563200000000     0.254860000000     0.915530000000     0.200993   
H198     H      0.185570000000     0.287000000000     0.045050000000     0.195411   
H199     H      0.159610000000     0.243880000000     0.564190000000     0.210593   
H200     H      0.482020000000     0.303070000000     0.577480000000     0.202038   
H201     H      0.257010000000     0.067920000000     0.525760000000     0.207831   
H202     H      0.371910000000     0.530690000000     0.561580000000     0.201767   
H203     H      0.278900000000     0.469460000000     0.028550000000     0.208808   
H204     H      0.350100000000     0.021320000000     0.949130000000     0.20491    
H205     H      0.327830000000     0.535010000000     0.607280000000     0.125727   
H206     H      0.352570000000     0.480960000000     0.597630000000     0.184978   
H207     H      0.343610000000     0.434660000000     0.044810000000     0.146884   
H208     H      0.293640000000     0.426390000000     0.994280000000     0.199094   
H209     H      0.289740000000     0.990280000000     0.926380000000     0.127467   
H210     H      0.297660000000     0.046660000000     0.916610000000     0.184191   
H211     H      0.286220000000     0.122370000000     0.505230000000     0.14379    
H212     H      0.270230000000     0.104030000000     0.567260000000     0.198093   
H213     H      0.330990000000     0.426190000000     0.990620000000     0.202025   
H214     H      0.295050000000     0.081140000000     0.917080000000     0.203597   
H215     H      0.302750000000     0.117910000000     0.557280000000     0.199922   
H216     H      0.361360000000     0.449630000000     0.585870000000     0.203411   
H217     H      0.520040000000     0.391980000000     0.570130000000     0.0992178  
H218     H      0.476730000000     0.522880000000     0.540620000000     0.0412587  
H219     H      0.467010000000     0.493170000000     0.040950000000     0.0455027  
H220     H      0.533560000000     0.431510000000     0.990180000000     0.0451099  
H221     H      0.519460000000     0.459980000000     0.028640000000     0.0385242  
H222     H      0.485310000000     0.412570000000     0.938310000000     0.029523   
H223     H      0.426030000000     0.440340000000     0.014580000000     0.0490947  
H224     H      0.440270000000     0.412300000000     0.976410000000     0.0420674  
H225     H      0.520930000000     0.403570000000     0.952630000000     0.0458464  
H226     H      0.447340000000     0.472690000000     0.553430000000     0.0989608  
H227     H      0.465250000000     0.198230000000     0.533000000000     0.101908   
H228     H      0.338500000000     0.157630000000     0.474700000000     0.0429529  
H229     H      0.410330000000     0.097760000000     0.894130000000     0.030592   
H230     H      0.390740000000     0.173640000000     0.974510000000     0.0361585  
H231     H      0.370950000000     0.133120000000     0.951070000000     0.0522494  
H232     H      0.449010000000     0.215380000000     0.952060000000     0.0450364  
H233     H      0.452850000000     0.127370000000     0.905370000000     0.0374147  
H234     H      0.472510000000     0.168270000000     0.928480000000     0.0414244  
H235     H      0.428710000000     0.207380000000     0.981740000000     0.0364065  
H236     H      0.401320000000     0.133610000000     0.467820000000     0.102053   
H237     H      0.170880000000     0.374400000000     0.051300000000     0.0980991  
H238     H      0.203570000000     0.508560000000     0.097200000000     0.0488743  
H239     H      0.220780000000     0.410010000000     0.583190000000     0.0304228  
H240     H      0.231130000000     0.358680000000     0.499230000000     0.041434   
H241     H      0.247110000000     0.378230000000     0.542080000000     0.0408291  
H242     H      0.165560000000     0.386970000000     0.458930000000     0.0455237  
H243     H      0.182340000000     0.443850000000     0.533200000000     0.0447634  
H244     H      0.165880000000     0.424000000000     0.490650000000     0.0419413  
H245     H      0.204730000000     0.385110000000     0.450150000000     0.0316917  
H246     H      0.249450000000     0.468740000000     0.117600000000     0.0965655  
H247     H      0.108030000000     0.156390000000     0.465660000000     0.102723   
H248     H      0.198840000000     0.124440000000     0.950520000000     0.0348081  
H249     H      0.237150000000     0.126600000000     0.961190000000     0.0494281  
H250     H      0.157500000000     0.195030000000     0.002920000000     0.0364988  
H251     H      0.172700000000     0.164250000000     0.966600000000     0.0376096  
H252     H      0.186290000000     0.187490000000     0.074420000000     0.0346218  
H253     H      0.221440000000     0.108770000000     0.449670000000     0.0534888  
H254     H      0.201160000000     0.155570000000     0.452500000000     0.03884    
H255     H      0.185160000000     0.216390000000     0.052220000000     0.0428055  
H256     H      0.176440000000     0.039130000000     0.469230000000     0.101715   
H257     H      0.392740000000     0.445800000000     0.926220000000     0.0985646  
H258     H      0.457330000000     0.071620000000     0.869370000000     0.0303432  
H259     H      0.494410000000     0.056980000000     0.866330000000     0.0446435  
H260     H      0.398530000000     0.006410000000     0.914060000000     0.0412309  
H261     H      0.413920000000     0.042460000000     0.883090000000     0.040422   
H262     H      0.445450000000     0.945310000000     0.931000000000     0.0317728  
H263     H      0.504080000000     0.509860000000     0.882040000000     0.0537317  
H264     H      0.488910000000     0.473140000000     0.912870000000     0.0373657  
H265     H      0.444740000000     0.971800000000     0.956280000000     0.051487   
H266     H      0.442730000000     0.553220000000     0.827240000000     0.0981057  
H267     H      0.186600000000     0.972810000000     0.988200000000     0.0987803  
H268     H      0.174130000000     0.968830000000     0.845030000000     0.0421406  
H269     H      0.156140000000     0.436900000000     0.847700000000     0.0414794  
H270     H      0.226760000000     0.476420000000     0.926320000000     0.0507457  
H271     H      0.206700000000     0.483550000000     0.881200000000     0.0387149  
H272     H      0.193140000000     0.424910000000     0.975510000000     0.0345273  
H273     H      0.138220000000     0.422490000000     0.896180000000     0.038781   
H274     H      0.158010000000     0.415540000000     0.941420000000     0.0405268  
H275     H      0.229780000000     0.431380000000     0.962210000000     0.0466832  
H276     H      0.119390000000     0.975130000000     0.876910000000     0.1029     
H277     H      0.141230000000     0.450400000000     0.660020000000     0.0982821  
H278     H      0.204670000000     0.062760000000     0.622390000000     0.0346413  
H279     H      0.243160000000     0.051720000000     0.622830000000     0.0518366  
H280     H      0.172370000000     0.008360000000     0.693820000000     0.0326247  
H281     H      0.187730000000     0.046930000000     0.665300000000     0.0391608  
H282     H      0.190000000000     0.933360000000     0.677800000000     0.0337849  
H283     H      0.235920000000     0.489600000000     0.614010000000     0.0487227  
H284     H      0.219270000000     0.451090000000     0.641890000000     0.036461   
H285     H      0.186040000000     0.955240000000     0.706620000000     0.0445368  
H286     H      0.195410000000     0.527320000000     0.584880000000     0.100088   
H287     H      0.466250000000     0.045440000000     0.661260000000     0.0999849  
H288     H      0.438400000000     0.132740000000     0.568600000000     0.0341068  
H289     H      0.436630000000     0.106720000000     0.542870000000     0.0516724  
H290     H      0.502440000000     0.092050000000     0.631410000000     0.0382155  
H291     H      0.473850000000     0.123870000000     0.603050000000     0.0376033  
H292     H      0.500230000000     0.014170000000     0.624130000000     0.0383005  
H293     H      0.433000000000     0.553770000000     0.562820000000     0.0513028  
H294     H      0.460600000000     0.522160000000     0.591640000000     0.0376747  
H295     H      0.524770000000     0.041750000000     0.632850000000     0.0449876  
H296     H      0.392320000000     0.616300000000     0.587470000000     0.0987946  
H297     H      0.097110000000     0.163140000000     0.962210000000     0.102439   
H298     H      0.600420000000     0.063000000000     0.878790000000     0.0446974  
H299     H      0.563270000000     0.076230000000     0.873250000000     0.0441079  
H300     H      0.567830000000     0.171450000000     0.896950000000     0.0392629  
H301     H      0.554680000000     0.128230000000     0.874160000000     0.038903   
H302     H      0.642040000000     0.184340000000     0.930360000000     0.0360906  
H303     H      0.138190000000     0.092050000000     0.901770000000     0.0404519  
H304     H      0.150590000000     0.135660000000     0.924240000000     0.0361768  
H305     H      0.610840000000     0.200790000000     0.914650000000     0.0454297  
H306     H      0.107880000000     0.100630000000     0.838090000000     0.102636   
H307     H      0.507670000000     0.439990000000     0.869230000000     0.0998294  
H308     H      0.616470000000     0.336230000000     0.899090000000     0.048911   
H309     H      0.130090000000     0.368770000000     0.891560000000     0.0360932  
H310     H      0.005790000000     0.366220000000     0.892460000000     0.0398032  
H311     H      0.051060000000     0.347500000000     0.913070000000     0.0341111  
H312     H      0.998500000000     0.394250000000     0.828790000000     0.0466738  
H313     H      0.105600000000     0.389080000000     0.854120000000     0.0396223  
H314     H      0.060130000000     0.406400000000     0.832520000000     0.0354909  
H315     H      0.981640000000     0.395710000000     0.861390000000     0.0359788  
H316     H      0.609320000000     0.387000000000     0.934820000000     0.0991061  
H317     H      0.148180000000     0.380250000000     0.578440000000     0.0994616  
H318     H      0.535600000000     0.437400000000     0.638360000000     0.0455058  
H319     H      0.514780000000     0.406020000000     0.632580000000     0.0323959  
H320     H      0.586380000000     0.335780000000     0.619580000000     0.0461818  
H321     H      0.540370000000     0.360380000000     0.632280000000     0.0378371  
H322     H      0.663140000000     0.366690000000     0.622060000000     0.0324194  
H323     H      0.086590000000     0.437640000000     0.640080000000     0.0511782  
H324     H      0.132610000000     0.412790000000     0.627600000000     0.0359053  
H325     H      0.642540000000     0.334960000000     0.618900000000     0.0480639  
H326     H      0.012470000000     0.395540000000     0.679200000000     0.098367   
H327     H      0.120230000000     0.088010000000     0.671920000000     0.0998974  
H328     H      0.080020000000     0.150360000000     0.551740000000     0.0498646  
H329     H      0.553400000000     0.156040000000     0.567860000000     0.0439744  
H330     H      0.646290000000     0.089160000000     0.602450000000     0.0375915  
H331     H      0.632860000000     0.128660000000     0.574070000000     0.0418304  
H332     H      0.593100000000     0.044300000000     0.633950000000     0.0491816  
H333     H      0.543070000000     0.127700000000     0.606460000000     0.0380357  
H334     H      0.556580000000     0.088200000000     0.634820000000     0.0414842  
H335     H      0.632200000000     0.052480000000     0.632040000000     0.0366745  
H336     H      0.097070000000     0.183610000000     0.598840000000     0.10147    
H337     H      0.558760000000     0.622160000000     0.281110000000     0.208276   
H338     H      0.158050000000     0.579400000000     0.222300000000     0.201976   
H339     H      0.115830000000     0.020060000000     0.313760000000     0.207552   
H340     H      0.535440000000     0.024050000000     0.222950000000     0.204415   
H341     H      0.177710000000     0.628900000000     0.249690000000     0.124466   
H342     H      0.209810000000     0.578140000000     0.264850000000     0.184377   
H343     H      0.165870000000     0.989160000000     0.267790000000     0.147794   
H344     H      0.101670000000     0.967490000000     0.306560000000     0.195373   
H345     H      0.507470000000     0.991690000000     0.268910000000     0.126842   
H346     H      0.475070000000     0.042830000000     0.251250000000     0.185812   
H347     H      0.522540000000     0.626420000000     0.219960000000     0.145995   
H348     H      0.577990000000     0.666660000000     0.251300000000     0.200125   
H349     H      0.110630000000     0.959870000000     0.274950000000     0.202692   
H350     H      0.464080000000     0.074990000000     0.243830000000     0.202703   
H351     H      0.575950000000     0.655820000000     0.219610000000     0.202537   
H352     H      0.219380000000     0.548570000000     0.279940000000     0.201826   
H353     H      0.085370000000     0.830840000000     0.064450000000     0.208642   
H354     H      0.496110000000     0.748490000000     0.035860000000     0.203387   
H355     H      0.533820000000     0.839450000000     0.488850000000     0.205627   
H356     H      0.083350000000     0.740110000000     0.450450000000     0.206829   
H357     H      0.468140000000     0.793350000000     0.068590000000     0.125377   
H358     H      0.446120000000     0.792740000000     0.016570000000     0.185876   
H359     H      0.473380000000     0.805590000000     0.500700000000     0.145234   
H360     H      0.498680000000     0.827610000000     0.445390000000     0.19647    
H361     H      0.081020000000     0.781400000000     0.407100000000     0.124859   
H362     H      0.144780000000     0.762790000000     0.423490000000     0.185387   
H363     H      0.150190000000     0.785030000000     0.087740000000     0.140956   
H364     H      0.058980000000     0.818130000000     0.114210000000     0.19921    
H365     H      0.486270000000     0.795080000000     0.447600000000     0.19993    
H366     H      0.176450000000     0.755420000000     0.440040000000     0.194701   
H367     H      0.068010000000     0.784620000000     0.115170000000     0.21153    
H368     H      0.438250000000     0.783540000000     0.985090000000     0.203241   
H369     H      0.282450000000     0.588950000000     0.018730000000     0.20527    
H370     H      0.380220000000     0.031580000000     0.063210000000     0.203845   
H371     H      0.300260000000     0.958080000000     0.499640000000     0.207692   
H372     H      0.349260000000     0.553110000000     0.447830000000     0.200642   
H373     H      0.340960000000     0.064350000000     0.106160000000     0.12774    
H374     H      0.347540000000     0.004680000000     0.113940000000     0.184615   
H375     H      0.372790000000     0.941070000000     0.511590000000     0.147107   
H376     H      0.326940000000     0.936310000000     0.455070000000     0.19722    
H377     H      0.314690000000     0.519430000000     0.409240000000     0.123886   
H378     H      0.294370000000     0.575510000000     0.418880000000     0.182985   
H379     H      0.328530000000     0.619590000000     0.985050000000     0.14007    
H380     H      0.310440000000     0.628830000000     0.045440000000     0.194073   
H381     H      0.362760000000     0.946450000000     0.457560000000     0.201229   
H382     H      0.283250000000     0.606070000000     0.430990000000     0.199283   
H383     H      0.346220000000     0.629480000000     0.035310000000     0.200091   
H384     H      0.346020000000     0.970200000000     0.111910000000     0.202375   
H385     H      0.464600000000     0.868870000000     0.951300000000     0.0972175  
H386     H      0.479980000000     0.968690000000     0.064480000000     0.0298719  
H387     H      0.470320000000     0.007190000000     0.509600000000     0.0455483  
H388     H      0.540740000000     0.960550000000     0.588680000000     0.038162   
H389     H      0.505730000000     0.997680000000     0.577140000000     0.0369261  
H390     H      0.576960000000     0.915020000000     0.543370000000     0.0527052  
H391     H      0.496730000000     0.964400000000     0.497600000000     0.0386982  
H392     H      0.532350000000     0.927550000000     0.508910000000     0.0448445  
H393     H      0.566930000000     0.919380000000     0.577700000000     0.0392028  
H394     H      0.430620000000     0.953930000000     0.074550000000     0.0947479  
H395     H      0.479310000000     0.671900000000     0.986780000000     0.101408   
H396     H      0.375240000000     0.602090000000     0.909760000000     0.0449353  
H397     H      0.361570000000     0.666400000000     0.445830000000     0.0343434  
H398     H      0.395640000000     0.690790000000     0.549850000000     0.0377748  
H399     H      0.365440000000     0.660200000000     0.521420000000     0.0423991  
H400     H      0.434300000000     0.753970000000     0.527160000000     0.0425745  
H401     H      0.396210000000     0.703940000000     0.451500000000     0.0372591  
H402     H      0.426200000000     0.734650000000     0.479960000000     0.0400968  
H403     H      0.426480000000     0.732160000000     0.555200000000     0.0348672  
H404     H      0.429520000000     0.571260000000     0.931440000000     0.101404   
H405     H      0.204230000000     0.837020000000     0.456060000000     0.0951145  
H406     H      0.213920000000     0.945120000000     0.571720000000     0.043723   
H407     H      0.200270000000     0.985590000000     0.125650000000     0.032375   
H408     H      0.159440000000     0.959720000000     0.025980000000     0.0372715  
H409     H      0.187050000000     0.993300000000     0.053010000000     0.0547289  
H410     H      0.116670000000     0.910860000000     0.045470000000     0.0478216  
H411     H      0.188480000000     0.935700000000     0.118750000000     0.0389009  
H412     H      0.160450000000     0.902220000000     0.091740000000     0.040207   
H413     H      0.142280000000     0.913560000000     0.018150000000     0.0421225  
H414     H      0.271670000000     0.916230000000     0.578290000000     0.096344   
H415     H      0.135970000000     0.674410000000     0.059250000000     0.099708   
H416     H      0.176650000000     0.547860000000     0.423050000000     0.0337415  
H417     H      0.214320000000     0.561530000000     0.424310000000     0.0454737  
H418     H      0.115880000000     0.626110000000     0.424020000000     0.0385085  
H419     H      0.135370000000     0.578840000000     0.422480000000     0.039307   
H420     H      0.163030000000     0.687830000000     0.444780000000     0.0411376  
H421     H      0.238590000000     0.625820000000     0.018100000000     0.0360398  
H422     H      0.222890000000     0.656110000000     0.054660000000     0.036965   
H423     H      0.134490000000     0.678510000000     0.421510000000     0.0331564  
H424     H      0.190990000000     0.587760000000     0.985320000000     0.102388   
H425     H      0.420120000000     0.002370000000     0.412270000000     0.0983957  
H426     H      0.479770000000     0.629860000000     0.363870000000     0.0320276  
H427     H      0.517300000000     0.615900000000     0.364320000000     0.0458076  
H428     H      0.419120000000     0.565380000000     0.408610000000     0.0428826  
H429     H      0.436120000000     0.601170000000     0.377410000000     0.0380156  
H430     H      0.469430000000     0.507630000000     0.433670000000     0.0325132  
H431     H      0.526030000000     0.070360000000     0.383210000000     0.050812   
H432     H      0.509380000000     0.034350000000     0.414300000000     0.035051   
H433     H      0.455450000000     0.535320000000     0.453530000000     0.0509964  
H434     H      0.467190000000     0.106640000000     0.324270000000     0.0983019  
H435     H      0.212330000000     0.448890000000     0.452080000000     0.098131   
H436     H      0.216780000000     0.568770000000     0.374580000000     0.0310445  
H437     H      0.213890000000     0.054840000000     0.342160000000     0.044807   
H438     H      0.272480000000     0.987110000000     0.389890000000     0.0550065  
H439     H      0.258750000000     0.030890000000     0.368740000000     0.0330939  
H440     H      0.220560000000     0.932660000000     0.409040000000     0.0312865  
H441     H      0.165050000000     0.013170000000     0.383480000000     0.0415806  
H442     H      0.179190000000     0.970130000000     0.405540000000     0.0396398  
H443     H      0.259100000000     0.943690000000     0.410210000000     0.0435364  
H444     H      0.162990000000     0.565890000000     0.380000000000     0.0968012  
H445     H      0.186310000000     0.010690000000     0.170240000000     0.0994711  
H446     H      0.239400000000     0.624160000000     0.120430000000     0.0332973  
H447     H      0.276640000000     0.610870000000     0.114430000000     0.0490046  
H448     H      0.208690000000     0.574130000000     0.195340000000     0.0322942  
H449     H      0.219020000000     0.609890000000     0.162030000000     0.0393825  
H450     H      0.238080000000     0.500470000000     0.189760000000     0.0335464  
H451     H      0.276980000000     0.054430000000     0.120480000000     0.0494449  
H452     H      0.265160000000     0.018560000000     0.153110000000     0.0385562  
H453     H      0.230620000000     0.525180000000     0.215400000000     0.0441439  
H454     H      0.217120000000     0.091360000000     0.088930000000     0.0999876  
H455     H      0.491750000000     0.568940000000     0.158430000000     0.0979496  
H456     H      0.477350000000     0.604640000000     0.028750000000     0.0365398  
H457     H      0.465900000000     0.569700000000     0.021450000000     0.0515211  
H458     H      0.534840000000     0.594850000000     0.106430000000     0.0454378  
H459     H      0.510540000000     0.611440000000     0.065470000000     0.0388344  
H460     H      0.520930000000     0.524660000000     0.136100000000     0.0363186  
H461     H      0.454070000000     0.038660000000     0.064220000000     0.0449193  
H462     H      0.477580000000     0.022180000000     0.105590000000     0.0361629  
H463     H      0.549030000000     0.550180000000     0.131000000000     0.0494102  
H464     H      0.431350000000     0.112310000000     0.056090000000     0.0993172  
H465     H      0.001560000000     0.689170000000     0.436740000000     0.0998482  
H466     H      0.636380000000     0.673820000000     0.367110000000     0.031271   
H467     H      0.619250000000     0.640080000000     0.366990000000     0.0477544  
H468     H      0.520280000000     0.657640000000     0.394480000000     0.0372597  
H469     H      0.566480000000     0.636020000000     0.377730000000     0.0457175  
H470     H      0.506230000000     0.734720000000     0.394600000000     0.0477544  
H471     H      0.104230000000     0.716840000000     0.363510000000     0.0352291  
H472     H      0.057490000000     0.738140000000     0.379420000000     0.0456745  
H473     H      0.487490000000     0.701940000000     0.391810000000     0.0332754  
H474     H      0.130050000000     0.680240000000     0.324060000000     0.0980841  
H475     H      0.542560000000     0.017920000000     0.379870000000     0.0974258  
H476     H      0.542930000000     0.868270000000     0.402370000000     0.0475937  
H477     H      0.079040000000     0.873150000000     0.391290000000     0.0419101  
H478     H      0.003320000000     0.962280000000     0.409350000000     0.0365412  
H479     H      0.021740000000     0.918290000000     0.427220000000     0.0393463  
H480     H      0.010010000000     0.982290000000     0.340680000000     0.0510228  
H481     H      0.079040000000     0.908660000000     0.358280000000     0.0376489  
H482     H      0.060180000000     0.952360000000     0.340170000000     0.0447239  
H483     H      0.997740000000     0.993300000000     0.372990000000     0.0354188  
H484     H      0.583730000000     0.902390000000     0.437510000000     0.100187   
H485     H      0.021040000000     0.907830000000     0.063960000000     0.101718   
H486     H      0.603230000000     0.947020000000     0.162470000000     0.0386643  
H487     H      0.581220000000     0.976930000000     0.154200000000     0.0500503  
H488     H      0.495580000000     0.943030000000     0.110070000000     0.0353527  
H489     H      0.529540000000     0.971850000000     0.136770000000     0.0384417  
H490     H      0.497400000000     0.866660000000     0.107920000000     0.0487775  
H491     H      0.087660000000     0.902790000000     0.154560000000     0.0381126  
H492     H      0.053770000000     0.873750000000     0.127920000000     0.0355138  
H493     H      0.477950000000     0.897190000000     0.097380000000     0.0363101  
H494     H      0.066090000000     0.941580000000     0.201090000000     0.100648   
H495     H      0.139160000000     0.643320000000     0.160490000000     0.099459   
H496     H      0.010700000000     0.670590000000     0.074640000000     0.0444692  
H497     H      0.491300000000     0.665190000000     0.104520000000     0.0331368  
H498     H      0.605320000000     0.633120000000     0.080160000000     0.0375952  
H499     H      0.561360000000     0.659070000000     0.064770000000     0.0550967  
H500     H      0.609840000000     0.589850000000     0.129960000000     0.0502833  
H501     H      0.522930000000     0.654200000000     0.143740000000     0.0397172  
H502     H      0.566410000000     0.627820000000     0.159040000000     0.0458185  
H503     H      0.635260000000     0.614740000000     0.115800000000     0.0350472  
H504     H      0.008650000000     0.712810000000     0.118680000000     0.0992467  
H505     H      0.532780000000     0.560080000000     0.787530000000     0.206952   
H506     H      0.122420000000     0.515620000000     0.722190000000     0.202462   
H507     H      0.071170000000     0.947350000000     0.802820000000     0.210087   
H508     H      0.499930000000     0.976140000000     0.714200000000     0.20207    
H509     H      0.148320000000     0.557990000000     0.756400000000     0.124865   
H510     H      0.172410000000     0.502400000000     0.763050000000     0.184758   
H511     H      0.117640000000     0.918240000000     0.753230000000     0.146467   
H512     H      0.040960000000     0.893220000000     0.781120000000     0.201932   
H513     H      0.466050000000     0.942300000000     0.756300000000     0.1261     
H514     H      0.443320000000     0.993010000000     0.743410000000     0.184703   
H515     H      0.500840000000     0.579230000000     0.732240000000     0.146577   
H516     H      0.556760000000     0.605830000000     0.764750000000     0.197726   
H517     H      0.061620000000     0.897690000000     0.753550000000     0.203195   
H518     H      0.434420000000     0.026550000000     0.744880000000     0.204772   
H519     H      0.557370000000     0.601640000000     0.731580000000     0.20171    
H520     H      0.177790000000     0.470560000000     0.775170000000     0.202435   
H521     H      0.149090000000     0.802870000000     0.526600000000     0.209395   
H522     H      0.544910000000     0.748880000000     0.560730000000     0.202041   
H523     H      0.543940000000     0.817560000000     0.954600000000     0.207776   
H524     H      0.122860000000     0.740180000000     0.000430000000     0.204045   
H525     H      0.575240000000     0.782000000000     0.605290000000     0.124842   
H526     H      0.515160000000     0.798860000000     0.591010000000     0.185097   
H527     H      0.504720000000     0.763660000000     0.935860000000     0.146527   
H528     H      0.565150000000     0.789050000000     0.911280000000     0.197286   
H529     H      0.153510000000     0.769940000000     0.959170000000     0.124681   
H530     H      0.179650000000     0.779460000000     0.012340000000     0.185742   
H531     H      0.185330000000     0.740880000000     0.492450000000     0.141328   
H532     H      0.166600000000     0.776140000000     0.573740000000     0.199706   
H533     H      0.563130000000     0.754850000000     0.915590000000     0.200944   
H534     H      0.186290000000     0.787400000000     0.044360000000     0.195158   
H535     H      0.159230000000     0.743630000000     0.564510000000     0.210583   
H536     H      0.481620000000     0.803090000000     0.576450000000     0.20223    
H537     H      0.257180000000     0.567330000000     0.525390000000     0.20826    
H538     H      0.371620000000     0.031160000000     0.562130000000     0.201742   
H539     H      0.278480000000     0.969670000000     0.028830000000     0.208744   
H540     H      0.350580000000     0.521070000000     0.948880000000     0.205062   
H541     H      0.327420000000     0.035640000000     0.607800000000     0.125829   
H542     H      0.352150000000     0.981500000000     0.598240000000     0.184717   
H543     H      0.343130000000     0.935060000000     0.045180000000     0.14665    
H544     H      0.293420000000     0.926570000000     0.994670000000     0.199238   
H545     H      0.290060000000     0.490240000000     0.926140000000     0.127399   
H546     H      0.297610000000     0.546700000000     0.916560000000     0.184339   
H547     H      0.286400000000     0.621900000000     0.504880000000     0.143775   
H548     H      0.270410000000     0.603410000000     0.566930000000     0.19809    
H549     H      0.330760000000     0.926450000000     0.991000000000     0.201868   
H550     H      0.296410000000     0.581250000000     0.916880000000     0.203531   
H551     H      0.302900000000     0.617340000000     0.556940000000     0.200003   
H552     H      0.360920000000     0.950140000000     0.586520000000     0.203405   
H553     H      0.519570000000     0.891860000000     0.569400000000     0.0992669  
H554     H      0.476580000000     0.023100000000     0.541500000000     0.0412175  
H555     H      0.466420000000     0.993410000000     0.040850000000     0.0456619  
H556     H      0.532990000000     0.930170000000     0.991450000000     0.0455963  
H557     H      0.518970000000     0.958970000000     0.029690000000     0.0384984  
H558     H      0.484480000000     0.911980000000     0.938990000000     0.0294965  
H559     H      0.425300000000     0.941380000000     0.014350000000     0.0493533  
H560     H      0.439480000000     0.912940000000     0.976430000000     0.041791   
H561     H      0.520180000000     0.903180000000     0.953250000000     0.0457376  
H562     H      0.446970000000     0.973100000000     0.554230000000     0.0989383  
H563     H      0.465280000000     0.698120000000     0.531800000000     0.101966   
H564     H      0.338450000000     0.657220000000     0.474060000000     0.0429308  
H565     H      0.411100000000     0.597510000000     0.893960000000     0.0305605  
H566     H      0.391090000000     0.673130000000     0.974450000000     0.0361214  
H567     H      0.371380000000     0.632770000000     0.950720000000     0.0522149  
H568     H      0.449290000000     0.714860000000     0.952620000000     0.0450363  
H569     H      0.453740000000     0.626850000000     0.905700000000     0.0374051  
H570     H      0.473320000000     0.667610000000     0.929090000000     0.0415383  
H571     H      0.429250000000     0.706500000000     0.982350000000     0.0363835  
H572     H      0.401300000000     0.633270000000     0.467230000000     0.102043   
H573     H      0.171110000000     0.874730000000     0.050800000000     0.0980221  
H574     H      0.202950000000     0.008800000000     0.097450000000     0.0486352  
H575     H      0.220220000000     0.910760000000     0.583710000000     0.0304801  
H576     H      0.231160000000     0.858390000000     0.500550000000     0.0414984  
H577     H      0.246520000000     0.878320000000     0.543410000000     0.0407257  
H578     H      0.166580000000     0.886650000000     0.459020000000     0.0454809  
H579     H      0.182710000000     0.944450000000     0.532780000000     0.0450506  
H580     H      0.166840000000     0.924230000000     0.490210000000     0.0417337  
H581     H      0.205880000000     0.884810000000     0.450710000000     0.0317235  
H582     H      0.248910000000     0.969120000000     0.117890000000     0.0965756  
H583     H      0.108550000000     0.656300000000     0.465350000000     0.102847   
H584     H      0.199410000000     0.624120000000     0.950150000000     0.0347532  
H585     H      0.237810000000     0.626290000000     0.960570000000     0.0494472  
H586     H      0.158340000000     0.694970000000     0.002390000000     0.0366099  
H587     H      0.173260000000     0.663940000000     0.966170000000     0.0375715  
H588     H      0.187870000000     0.688020000000     0.073710000000     0.0346738  
H589     H      0.221680000000     0.608140000000     0.449810000000     0.0537867  
H590     H      0.201710000000     0.655030000000     0.452730000000     0.0388627  
H591     H      0.186360000000     0.716760000000     0.051340000000     0.0427763  
H592     H      0.176550000000     0.538630000000     0.468950000000     0.101603   
H593     H      0.392600000000     0.945820000000     0.926900000000     0.0985191  
H594     H      0.457050000000     0.571350000000     0.868900000000     0.030361   
H595     H      0.494220000000     0.556900000000     0.865930000000     0.0446657  
H596     H      0.398540000000     0.505820000000     0.913540000000     0.0409182  
H597     H      0.413770000000     0.541980000000     0.882580000000     0.0403913  
H598     H      0.445750000000     0.444910000000     0.930710000000     0.0317584  
H599     H      0.504020000000     0.009860000000     0.882380000000     0.0537387  
H600     H      0.488680000000     0.973210000000     0.913210000000     0.0374503  
H601     H      0.445160000000     0.471040000000     0.955850000000     0.0513106  
H602     H      0.442850000000     0.053620000000     0.827700000000     0.0981423  
H603     H      0.186970000000     0.472960000000     0.988020000000     0.0988033  
H604     H      0.174530000000     0.469660000000     0.844830000000     0.0420982  
H605     H      0.155670000000     0.936130000000     0.848130000000     0.0413149  
H606     H      0.226670000000     0.975810000000     0.926350000000     0.0509231  
H607     H      0.206550000000     0.982720000000     0.881210000000     0.0387319  
H608     H      0.192990000000     0.924710000000     0.975890000000     0.0345115  
H609     H      0.137680000000     0.922190000000     0.896780000000     0.0387841  
H610     H      0.157540000000     0.915460000000     0.942020000000     0.0406555  
H611     H      0.229600000000     0.931270000000     0.962560000000     0.04662    
H612     H      0.119790000000     0.475840000000     0.876620000000     0.102841   
H613     H      0.141390000000     0.951000000000     0.660140000000     0.098198   
H614     H      0.204950000000     0.562250000000     0.621880000000     0.0346605  
H615     H      0.243410000000     0.551110000000     0.622420000000     0.0517911  
H616     H      0.172090000000     0.508030000000     0.693270000000     0.0326539  
H617     H      0.187580000000     0.546510000000     0.664680000000     0.03915    
H618     H      0.189920000000     0.432830000000     0.677710000000     0.0337234  
H619     H      0.235570000000     0.990130000000     0.614130000000     0.0488229  
H620     H      0.219040000000     0.951530000000     0.641950000000     0.0364815  
H621     H      0.186070000000     0.454680000000     0.706260000000     0.0445748  
H622     H      0.195120000000     0.028030000000     0.585280000000     0.100075   
H623     H      0.466050000000     0.544590000000     0.660830000000     0.100021   
H624     H      0.438590000000     0.632250000000     0.568250000000     0.0341117  
H625     H      0.436810000000     0.606290000000     0.542470000000     0.0516289  
H626     H      0.502120000000     0.591300000000     0.631330000000     0.0382659  
H627     H      0.473700000000     0.623240000000     0.602960000000     0.0375834  
H628     H      0.499920000000     0.513420000000     0.623690000000     0.0382047  
H629     H      0.432730000000     0.054230000000     0.563540000000     0.0512536  
H630     H      0.460520000000     0.022740000000     0.592350000000     0.0376306  
H631     H      0.524620000000     0.540900000000     0.632380000000     0.0450192  
H632     H      0.392180000000     0.116770000000     0.587910000000     0.0987751  
H633     H      0.098130000000     0.663240000000     0.961960000000     0.102328   
H634     H      0.600040000000     0.563500000000     0.878110000000     0.0448279  
H635     H      0.563000000000     0.577000000000     0.872630000000     0.043957   
H636     H      0.568300000000     0.672100000000     0.896620000000     0.0392311  
H637     H      0.554830000000     0.629050000000     0.873670000000     0.0389366  
H638     H      0.642620000000     0.684400000000     0.930020000000     0.0360237  
H639     H      0.138090000000     0.592300000000     0.900960000000     0.0404116  
H640     H      0.150900000000     0.635720000000     0.923580000000     0.0362133  
H641     H      0.611460000000     0.701110000000     0.914480000000     0.0455657  
H642     H      0.107280000000     0.601380000000     0.837330000000     0.102637   
H643     H      0.506940000000     0.939830000000     0.869310000000     0.0999428  
H644     H      0.615950000000     0.836460000000     0.899160000000     0.0490304  
H645     H      0.129240000000     0.869040000000     0.891510000000     0.0360991  
H646     H      0.004980000000     0.866830000000     0.892870000000     0.0396825  
H647     H      0.050260000000     0.848260000000     0.913560000000     0.0344818  
H648     H      0.997680000000     0.894230000000     0.828650000000     0.046496   
H649     H      0.104680000000     0.888470000000     0.853640000000     0.0396751  
H650     H      0.059150000000     0.905630000000     0.831980000000     0.0357177  
H651     H      0.980760000000     0.895620000000     0.861230000000     0.0358939  
H652     H      0.608590000000     0.887150000000     0.934970000000     0.0991213  
H653     H      0.147870000000     0.880030000000     0.578720000000     0.0995205  
H654     H      0.535400000000     0.937850000000     0.638490000000     0.0455442  
H655     H      0.514320000000     0.906660000000     0.632560000000     0.032422   
H656     H      0.585360000000     0.836050000000     0.619120000000     0.0459992  
H657     H      0.539490000000     0.860910000000     0.631760000000     0.0379153  
H658     H      0.662420000000     0.866350000000     0.622380000000     0.0324687  
H659     H      0.086620000000     0.937630000000     0.640670000000     0.0514469  
H660     H      0.132480000000     0.912450000000     0.628330000000     0.0359704  
H661     H      0.641580000000     0.834770000000     0.619060000000     0.0481219  
H662     H      0.012010000000     0.896010000000     0.679030000000     0.0985458  
H663     H      0.119660000000     0.588010000000     0.671210000000     0.099988   
H664     H      0.079360000000     0.650310000000     0.551200000000     0.0499325  
H665     H      0.553190000000     0.655820000000     0.567160000000     0.0438815  
H666     H      0.646220000000     0.589300000000     0.602200000000     0.0375511  
H667     H      0.632770000000     0.628800000000     0.573810000000     0.0418556  
H668     H      0.592910000000     0.544110000000     0.633420000000     0.0491399  
H669     H      0.542660000000     0.627160000000     0.605470000000     0.0380554  
H670     H      0.556190000000     0.587650000000     0.633820000000     0.0414226  
H671     H      0.632000000000     0.552320000000     0.631450000000     0.0366755  
H672     H      0.096150000000     0.683470000000     0.598510000000     0.101422   
H673     H      0.059720000000     0.123720000000     0.283840000000     0.20819    
H674     H      0.653530000000     0.078500000000     0.220390000000     0.201848   
H675     H      0.614890000000     0.518780000000     0.311870000000     0.207556   
H676     H      0.039610000000     0.525560000000     0.223130000000     0.204185   
H677     H      0.673250000000     0.128320000000     0.246990000000     0.124447   
H678     H      0.705780000000     0.077830000000     0.262120000000     0.184633   
H679     H      0.664240000000     0.487210000000     0.266440000000     0.147943   
H680     H      0.600790000000     0.466290000000     0.305320000000     0.195431   
H681     H      0.010930000000     0.492770000000     0.268540000000     0.12696    
H682     H      0.979060000000     0.544220000000     0.250750000000     0.185606   
H683     H      0.023860000000     0.128700000000     0.222720000000     0.146162   
H684     H      0.079010000000     0.168540000000     0.254550000000     0.200222   
H685     H      0.609130000000     0.457990000000     0.273730000000     0.202638   
H686     H      0.968310000000     0.576520000000     0.243620000000     0.20292    
H687     H      0.077240000000     0.158090000000     0.222730000000     0.202603   
H688     H      0.715730000000     0.048640000000     0.277700000000     0.201804   
H689     H      0.582230000000     0.329560000000     0.064840000000     0.209005   
H690     H      0.997160000000     0.250370000000     0.037830000000     0.203869   
H691     H      0.031680000000     0.339830000000     0.489740000000     0.205823   
H692     H      0.583530000000     0.240190000000     0.449090000000     0.206777   
H693     H      0.970250000000     0.295910000000     0.070540000000     0.125339   
H694     H      0.947130000000     0.295110000000     0.018920000000     0.186247   
H695     H      0.971100000000     0.306260000000     0.501320000000     0.145114   
H696     H      0.996930000000     0.327540000000     0.446020000000     0.196392   
H697     H      0.579620000000     0.281910000000     0.406050000000     0.124938   
H698     H      0.643900000000     0.263440000000     0.420720000000     0.185436   
H699     H      0.645750000000     0.283010000000     0.089710000000     0.141144   
H700     H      0.553760000000     0.316540000000     0.113760000000     0.199284   
H701     H      0.984490000000     0.295030000000     0.448420000000     0.200011   
H702     H      0.676150000000     0.256050000000     0.436350000000     0.194777   
H703     H      0.562680000000     0.283000000000     0.114650000000     0.211426   
H704     H      0.938340000000     0.284980000000     0.987900000000     0.203218   
H705     H      0.781880000000     0.089160000000     0.019950000000     0.205491   
H706     H      0.880960000000     0.530880000000     0.064120000000     0.204003   
H707     H      0.799070000000     0.458790000000     0.498800000000     0.207852   
H708     H      0.848420000000     0.054110000000     0.448060000000     0.200881   
H709     H      0.841580000000     0.563380000000     0.107240000000     0.127784   
H710     H      0.847730000000     0.503590000000     0.114610000000     0.184843   
H711     H      0.871560000000     0.442140000000     0.511910000000     0.147241   
H712     H      0.826760000000     0.436780000000     0.455010000000     0.197089   
H713     H      0.816250000000     0.020020000000     0.409090000000     0.123741   
H714     H      0.792360000000     0.075750000000     0.418090000000     0.183454   
H715     H      0.827030000000     0.120280000000     0.986830000000     0.139446   
H716     H      0.809780000000     0.129100000000     0.046940000000     0.194206   
H717     H      0.862480000000     0.447170000000     0.457730000000     0.201086   
H718     H      0.784390000000     0.107330000000     0.429720000000     0.198875   
H719     H      0.845610000000     0.129790000000     0.036950000000     0.200055   
H720     H      0.846470000000     0.469130000000     0.112230000000     0.202605   
H721     H      0.964970000000     0.369530000000     0.951500000000     0.0971238  
H722     H      0.980750000000     0.467840000000     0.065200000000     0.0298925  
H723     H      0.968510000000     0.508940000000     0.510800000000     0.0458523  
H724     H      0.038130000000     0.461060000000     0.589750000000     0.038034   
H725     H      0.003300000000     0.498430000000     0.578480000000     0.0369065  
H726     H      0.074380000000     0.415890000000     0.543890000000     0.0525762  
H727     H      0.994880000000     0.466290000000     0.498450000000     0.0388725  
H728     H      0.030260000000     0.429170000000     0.509510000000     0.0445649  
H729     H      0.064550000000     0.420110000000     0.578270000000     0.039335   
H730     H      0.931330000000     0.453450000000     0.075240000000     0.09485    
H731     H      0.978730000000     0.173180000000     0.990290000000     0.101394   
H732     H      0.875310000000     0.103670000000     0.911870000000     0.0452533  
H733     H      0.860930000000     0.167550000000     0.445180000000     0.0340902  
H734     H      0.892120000000     0.192080000000     0.549880000000     0.037798   
H735     H      0.862590000000     0.161540000000     0.520850000000     0.0423168  
H736     H      0.931640000000     0.255060000000     0.527990000000     0.0426511  
H737     H      0.895480000000     0.205030000000     0.451540000000     0.037209   
H738     H      0.924790000000     0.235700000000     0.480600000000     0.0401345  
H739     H      0.923120000000     0.233210000000     0.555840000000     0.0348299  
H740     H      0.929560000000     0.072780000000     0.933500000000     0.101466   
H741     H      0.704560000000     0.337420000000     0.452960000000     0.0950567  
H742     H      0.711520000000     0.445580000000     0.569440000000     0.0436488  
H743     H      0.700960000000     0.485130000000     0.125690000000     0.0323673  
H744     H      0.661140000000     0.456520000000     0.026120000000     0.0371561  
H745     H      0.689510000000     0.490350000000     0.052220000000     0.0557267  
H746     H      0.615190000000     0.409720000000     0.048360000000     0.0472607  
H747     H      0.686350000000     0.436170000000     0.120600000000     0.0387792  
H748     H      0.657390000000     0.402530000000     0.094530000000     0.0400029  
H749     H      0.639940000000     0.411790000000     0.020420000000     0.0430697  
H750     H      0.769350000000     0.417070000000     0.576940000000     0.0962527  
H751     H      0.632110000000     0.172870000000     0.059750000000     0.0999399  
H752     H      0.676460000000     0.047940000000     0.420500000000     0.0341485  
H753     H      0.714260000000     0.061320000000     0.422110000000     0.0453877  
H754     H      0.615400000000     0.126090000000     0.422010000000     0.0385385  
H755     H      0.634790000000     0.078780000000     0.421030000000     0.0392427  
H756     H      0.663040000000     0.188170000000     0.440850000000     0.0411897  
H757     H      0.736510000000     0.125190000000     0.020200000000     0.0363753  
H758     H      0.719500000000     0.154670000000     0.056930000000     0.0371574  
H759     H      0.633790000000     0.178610000000     0.418350000000     0.0330913  
H760     H      0.690510000000     0.087520000000     0.985990000000     0.102437   
H761     H      0.919990000000     0.503640000000     0.412350000000     0.0985114  
H762     H      0.980560000000     0.130670000000     0.366210000000     0.0321484  
H763     H      0.017920000000     0.116350000000     0.366810000000     0.0461252  
H764     H      0.919270000000     0.067090000000     0.411290000000     0.0430792  
H765     H      0.936690000000     0.102810000000     0.380220000000     0.0380026  
H766     H      0.968840000000     0.008480000000     0.435420000000     0.0324467  
H767     H      0.026830000000     0.568520000000     0.382830000000     0.05129    
H768     H      0.008950000000     0.532880000000     0.413800000000     0.0348467  
H769     H      0.954710000000     0.036140000000     0.455620000000     0.0507925  
H770     H      0.970290000000     0.606740000000     0.324630000000     0.0983872  
H771     H      0.711130000000     0.950690000000     0.450820000000     0.0981887  
H772     H      0.714250000000     0.069690000000     0.371710000000     0.0312101  
H773     H      0.713220000000     0.554020000000     0.339290000000     0.0448613  
H774     H      0.772580000000     0.487960000000     0.388960000000     0.0550619  
H775     H      0.758540000000     0.531420000000     0.367360000000     0.0327974  
H776     H      0.721070000000     0.432670000000     0.407190000000     0.0312228  
H777     H      0.664840000000     0.512060000000     0.379970000000     0.0417036  
H778     H      0.679240000000     0.469330000000     0.402480000000     0.0395597  
H779     H      0.759430000000     0.444140000000     0.408730000000     0.0437805  
H780     H      0.660510000000     0.065780000000     0.378190000000     0.0971276  
H781     H      0.684480000000     0.507280000000     0.168330000000     0.0992099  
H782     H      0.738090000000     0.123760000000     0.121550000000     0.0332895  
H783     H      0.775290000000     0.110240000000     0.115840000000     0.0490304  
H784     H      0.705200000000     0.072570000000     0.194930000000     0.0323846  
H785     H      0.716820000000     0.108930000000     0.162600000000     0.0391157  
H786     H      0.733200000000     0.998690000000     0.187720000000     0.0335268  
H787     H      0.777060000000     0.552400000000     0.120730000000     0.0495129  
H788     H      0.764160000000     0.515510000000     0.151930000000     0.0388982  
H789     H      0.726190000000     0.022870000000     0.214260000000     0.0445101  
H790     H      0.717900000000     0.590720000000     0.089800000000     0.0999696  
H791     H      0.993650000000     0.072180000000     0.160170000000     0.0982539  
H792     H      0.976120000000     0.105610000000     0.030190000000     0.0367323  
H793     H      0.965400000000     0.070280000000     0.023780000000     0.0514756  
H794     H      0.034590000000     0.099160000000     0.107640000000     0.0451319  
H795     H      0.008970000000     0.114420000000     0.066840000000     0.0386909  
H796     H      0.025010000000     0.028570000000     0.137550000000     0.037208   
H797     H      0.957420000000     0.539320000000     0.067180000000     0.0440528  
H798     H      0.983390000000     0.524790000000     0.108110000000     0.0363443  
H799     H      0.051240000000     0.055690000000     0.132460000000     0.0491912  
H800     H      0.932370000000     0.611320000000     0.058060000000     0.0995427  
H801     H      0.501470000000     0.189090000000     0.437140000000     0.0999458  
H802     H      0.136040000000     0.175040000000     0.370720000000     0.0310439  
H803     H      0.119500000000     0.141050000000     0.370190000000     0.0475433  
H804     H      0.020400000000     0.157400000000     0.397890000000     0.0373974  
H805     H      0.067160000000     0.136370000000     0.381730000000     0.0451829  
H806     H      0.004480000000     0.234230000000     0.396240000000     0.0474845  
H807     H      0.602080000000     0.216880000000     0.362070000000     0.0351453  
H808     H      0.555880000000     0.238250000000     0.379090000000     0.045462   
H809     H      0.986380000000     0.201130000000     0.393470000000     0.0332262  
H810     H      0.626420000000     0.180100000000     0.321570000000     0.0981755  
H811     H      0.044520000000     0.517930000000     0.380070000000     0.0972022  
H812     H      0.039290000000     0.368800000000     0.404480000000     0.0463129  
H813     H      0.579570000000     0.373050000000     0.390960000000     0.0414333  
H814     H      0.503010000000     0.461750000000     0.408480000000     0.0365912  
H815     H      0.521730000000     0.417960000000     0.426580000000     0.0396278  
H816     H      0.509270000000     0.481340000000     0.339740000000     0.0510275  
H817     H      0.578870000000     0.408150000000     0.357550000000     0.0374814  
H818     H      0.559690000000     0.451620000000     0.339220000000     0.0447365  
H819     H      0.497310000000     0.492640000000     0.372050000000     0.0353449  
H820     H      0.080810000000     0.402630000000     0.438720000000     0.100267   
H821     H      0.518470000000     0.406900000000     0.063110000000     0.101901   
H822     H      0.107520000000     0.448930000000     0.162770000000     0.0385473  
H823     H      0.085180000000     0.478740000000     0.154360000000     0.0499985  
H824     H      0.998510000000     0.445370000000     0.111610000000     0.0355663  
H825     H      0.032840000000     0.473810000000     0.138340000000     0.0386453  
H826     H      0.000490000000     0.369480000000     0.108090000000     0.0489523  
H827     H      0.583390000000     0.399420000000     0.154920000000     0.0381101  
H828     H      0.548750000000     0.371220000000     0.128220000000     0.0352253  
H829     H      0.981110000000     0.399830000000     0.097600000000     0.0362503  
H830     H      0.564530000000     0.439050000000     0.200230000000     0.100474   
H831     H      0.633530000000     0.141820000000     0.158290000000     0.0995768  
H832     H      0.506310000000     0.169710000000     0.071740000000     0.0442958  
H833     H      0.993060000000     0.167950000000     0.107080000000     0.0331896  
H834     H      0.107330000000     0.135940000000     0.082940000000     0.037452   
H835     H      0.063280000000     0.161700000000     0.067420000000     0.0555688  
H836     H      0.112120000000     0.092840000000     0.132570000000     0.0502422  
H837     H      0.024760000000     0.156950000000     0.146350000000     0.0396261  
H838     H      0.068280000000     0.130690000000     0.161770000000     0.0458024  
H839     H      0.137410000000     0.118080000000     0.118790000000     0.0348428  
H840     H      0.502780000000     0.211600000000     0.115800000000     0.0990863  
H841     H      0.032110000000     0.060920000000     0.789520000000     0.207129   
H842     H      0.624610000000     0.015710000000     0.721890000000     0.202618   
H843     H      0.574920000000     0.447640000000     0.802180000000     0.209615   
H844     H      0.997080000000     0.477780000000     0.715040000000     0.20249    
H845     H      0.649580000000     0.058590000000     0.755920000000     0.125      
H846     H      0.674540000000     0.003300000000     0.763180000000     0.184588   
H847     H      0.621480000000     0.418890000000     0.753340000000     0.147177   
H848     H      0.549050000000     0.393790000000     0.782200000000     0.201282   
H849     H      0.962850000000     0.444450000000     0.758030000000     0.126824   
H850     H      0.940920000000     0.495350000000     0.744630000000     0.184407   
H851     H      0.000510000000     0.081440000000     0.734490000000     0.146409   
H852     H      0.057340000000     0.106360000000     0.767350000000     0.19767    
H853     H      0.565600000000     0.396520000000     0.752320000000     0.203244   
H854     H      0.932580000000     0.529000000000     0.746420000000     0.204688   
H855     H      0.057530000000     0.102580000000     0.734130000000     0.201794   
H856     H      0.680320000000     0.971560000000     0.775390000000     0.202594   
H857     H      0.651410000000     0.302600000000     0.524000000000     0.209607   
H858     H      0.041790000000     0.249980000000     0.562490000000     0.201951   
H859     H      0.043540000000     0.318000000000     0.954840000000     0.207806   
H860     H      0.621540000000     0.239250000000     0.001200000000     0.203708   
H861     H      0.071730000000     0.283300000000     0.607030000000     0.124824   
H862     H      0.011850000000     0.300210000000     0.592080000000     0.184848   
H863     H      0.003730000000     0.264140000000     0.937490000000     0.146277   
H864     H      0.063390000000     0.288770000000     0.911570000000     0.197154   
H865     H      0.653880000000     0.269120000000     0.961120000000     0.124729   
H866     H      0.678100000000     0.278130000000     0.015170000000     0.185986   
H867     H      0.686940000000     0.241140000000     0.488290000000     0.14142    
H868     H      0.670480000000     0.275730000000     0.570670000000     0.19964    
H869     H      0.061870000000     0.254590000000     0.916150000000     0.201048   
H870     H      0.683560000000     0.285710000000     0.047450000000     0.195362   
H871     H      0.663100000000     0.243290000000     0.561200000000     0.210221   
H872     H      0.978490000000     0.304440000000     0.577200000000     0.202259   
H873     H      0.754890000000     0.069080000000     0.524070000000     0.208207   
H874     H      0.869050000000     0.532490000000     0.561800000000     0.201909   
H875     H      0.779260000000     0.469420000000     0.028950000000     0.208981   
H876     H      0.850720000000     0.021900000000     0.950140000000     0.204548   
H877     H      0.823190000000     0.536930000000     0.606930000000     0.126194   
H878     H      0.848960000000     0.483040000000     0.597980000000     0.184722   
H879     H      0.844070000000     0.434610000000     0.045180000000     0.146774   
H880     H      0.794180000000     0.426570000000     0.994350000000     0.199212   
H881     H      0.790580000000     0.991000000000     0.926970000000     0.127534   
H882     H      0.798900000000     0.047350000000     0.917480000000     0.184137   
H883     H      0.784370000000     0.123480000000     0.503380000000     0.143638   
H884     H      0.767530000000     0.105790000000     0.565290000000     0.198059   
H885     H      0.831550000000     0.426450000000     0.990920000000     0.202118   
H886     H      0.795420000000     0.081760000000     0.918310000000     0.203686   
H887     H      0.800300000000     0.119480000000     0.555720000000     0.200141   
H888     H      0.858210000000     0.451670000000     0.586590000000     0.203211   
H889     H      0.016750000000     0.393040000000     0.569740000000     0.0993489  
H890     H      0.974680000000     0.524480000000     0.542900000000     0.0411816  
H891     H      0.967320000000     0.493260000000     0.042240000000     0.0454007  
H892     H      0.033370000000     0.432040000000     0.990470000000     0.0451971  
H893     H      0.019510000000     0.460380000000     0.029090000000     0.038416   
H894     H      0.984670000000     0.412650000000     0.938950000000     0.0294725  
H895     H      0.926020000000     0.440450000000     0.015650000000     0.0489206  
H896     H      0.940020000000     0.412620000000     0.977290000000     0.0420537  
H897     H      0.020490000000     0.403960000000     0.953040000000     0.0458349  
H898     H      0.944770000000     0.474790000000     0.555410000000     0.0988912  
H899     H      0.962340000000     0.199110000000     0.533360000000     0.10201    
H900     H      0.837000000000     0.158430000000     0.472910000000     0.0427194  
H901     H      0.911330000000     0.099500000000     0.896270000000     0.0306331  
H902     H      0.890290000000     0.173600000000     0.977910000000     0.0360415  
H903     H      0.871040000000     0.133510000000     0.953470000000     0.0526453  
H904     H      0.947430000000     0.216380000000     0.956980000000     0.0455415  
H905     H      0.953510000000     0.129140000000     0.908450000000     0.0374313  
H906     H      0.972620000000     0.169640000000     0.932550000000     0.041848   
H907     H      0.928370000000     0.206740000000     0.986880000000     0.0360703  
H908     H      0.900030000000     0.134470000000     0.467330000000     0.102067   
H909     H      0.668700000000     0.373080000000     0.054160000000     0.0982508  
H910     H      0.703440000000     0.507690000000     0.097000000000     0.0492287  
H911     H      0.717840000000     0.411260000000     0.581540000000     0.0302251  
H912     H      0.730710000000     0.358820000000     0.498680000000     0.0415896  
H913     H      0.745030000000     0.378860000000     0.541790000000     0.0406369  
H914     H      0.666940000000     0.386790000000     0.456030000000     0.0449208  
H915     H      0.681320000000     0.444820000000     0.529880000000     0.0451498  
H916     H      0.666490000000     0.424500000000     0.487060000000     0.0416049  
H917     H      0.706400000000     0.385230000000     0.448280000000     0.0315618  
H918     H      0.749220000000     0.467640000000     0.117580000000     0.0965553  
H919     H      0.609330000000     0.156420000000     0.462760000000     0.102821   
H920     H      0.699270000000     0.124520000000     0.951380000000     0.0348719  
H921     H      0.737380000000     0.126880000000     0.962600000000     0.0493124  
H922     H      0.656290000000     0.194190000000     0.003840000000     0.0366369  
H923     H      0.672490000000     0.163960000000     0.967440000000     0.0377065  
H924     H      0.683530000000     0.185860000000     0.075730000000     0.0347038  
H925     H      0.722140000000     0.108640000000     0.444920000000     0.053272   
H926     H      0.702280000000     0.155610000000     0.447480000000     0.0388073  
H927     H      0.682970000000     0.215120000000     0.053980000000     0.0428606  
H928     H      0.675500000000     0.039310000000     0.466420000000     0.101723   
H929     H      0.893540000000     0.446490000000     0.926950000000     0.0984956  
H930     H      0.957140000000     0.073410000000     0.871280000000     0.0301734  
H931     H      0.994220000000     0.058880000000     0.867650000000     0.0441842  
H932     H      0.898730000000     0.007050000000     0.915020000000     0.0410318  
H933     H      0.913770000000     0.043540000000     0.884400000000     0.0404565  
H934     H      0.946270000000     0.946370000000     0.931580000000     0.0317256  
H935     H      0.004420000000     0.512230000000     0.883730000000     0.0531411  
H936     H      0.989640000000     0.475070000000     0.914200000000     0.0376938  
H937     H      0.945410000000     0.972510000000     0.957200000000     0.0515123  
H938     H      0.942170000000     0.555930000000     0.829060000000     0.0980059  
H939     H      0.687150000000     0.972610000000     0.988750000000     0.0986834  
H940     H      0.676630000000     0.970710000000     0.845220000000     0.0419812  
H941     H      0.659030000000     0.438480000000     0.847150000000     0.0417056  
H942     H      0.728070000000     0.477080000000     0.927180000000     0.0511234  
H943     H      0.708740000000     0.484750000000     0.881900000000     0.0386749  
H944     H      0.693590000000     0.425040000000     0.975390000000     0.0344226  
H945     H      0.640130000000     0.423410000000     0.895270000000     0.0387385  
H946     H      0.659190000000     0.415920000000     0.940670000000     0.0401913  
H947     H      0.730480000000     0.431480000000     0.962610000000     0.0464764  
H948     H      0.621520000000     0.976410000000     0.876430000000     0.102887   
H949     H      0.644920000000     0.449840000000     0.659930000000     0.0982704  
H950     H      0.699240000000     0.064360000000     0.619950000000     0.033707   
H951     H      0.738560000000     0.056240000000     0.620300000000     0.051605   
H952     H      0.673890000000     0.009860000000     0.693440000000     0.0320318  
H953     H      0.686030000000     0.048730000000     0.664090000000     0.0394082  
H954     H      0.694610000000     0.935540000000     0.677540000000     0.0338548  
H955     H      0.734580000000     0.493130000000     0.611450000000     0.0493935  
H956     H      0.721230000000     0.454270000000     0.640180000000     0.0367392  
H957     H      0.689640000000     0.957630000000     0.706100000000     0.0444454  
H958     H      0.692040000000     0.529370000000     0.582450000000     0.0999705  
H959     H      0.964310000000     0.048270000000     0.662880000000     0.10001    
H960     H      0.935580000000     0.134190000000     0.569250000000     0.0341596  
H961     H      0.934280000000     0.108040000000     0.543650000000     0.0517586  
H962     H      0.000090000000     0.094120000000     0.632040000000     0.0379077  
H963     H      0.971410000000     0.125650000000     0.603420000000     0.0375616  
H964     H      0.997590000000     0.016180000000     0.625690000000     0.0384675  
H965     H      0.929750000000     0.555230000000     0.564440000000     0.0509025  
H966     H      0.957500000000     0.523870000000     0.593450000000     0.037686   
H967     H      0.022280000000     0.043800000000     0.633900000000     0.0447418  
H968     H      0.889170000000     0.617770000000     0.587750000000     0.0989051  
H969     H      0.597780000000     0.162790000000     0.961450000000     0.102362   
H970     H      0.101020000000     0.062360000000     0.880280000000     0.0442683  
H971     H      0.063570000000     0.074940000000     0.874750000000     0.0444752  
H972     H      0.066220000000     0.170240000000     0.898230000000     0.0392181  
H973     H      0.053720000000     0.126600000000     0.875910000000     0.0388608  
H974     H      0.140790000000     0.184890000000     0.930340000000     0.0362032  
H975     H      0.637860000000     0.091810000000     0.900910000000     0.040508   
H976     H      0.650900000000     0.134990000000     0.923860000000     0.036299   
H977     H      0.109020000000     0.200580000000     0.914830000000     0.0452341  
H978     H      0.607250000000     0.101750000000     0.836560000000     0.102679   
H979     H      0.004680000000     0.440690000000     0.870010000000     0.0999219  
H980     H      0.112750000000     0.335760000000     0.897530000000     0.0487532  
H981     H      0.633340000000     0.369260000000     0.893860000000     0.0359718  
H982     H      0.508930000000     0.364420000000     0.891250000000     0.0399706  
H983     H      0.553910000000     0.346170000000     0.912730000000     0.0335363  
H984     H      0.502770000000     0.393130000000     0.828300000000     0.0469947  
H985     H      0.609440000000     0.390350000000     0.856360000000     0.0393188  
H986     H      0.564340000000     0.407240000000     0.833850000000     0.0349831  
H987     H      0.485210000000     0.394690000000     0.860610000000     0.036082   
H988     H      0.107600000000     0.387080000000     0.932940000000     0.0990583  
H989     H      0.651730000000     0.379370000000     0.576640000000     0.0993867  
H990     H      0.031280000000     0.439050000000     0.638870000000     0.0451428  
H991     H      0.010530000000     0.408030000000     0.632950000000     0.0323472  
H992     H      0.082220000000     0.337050000000     0.621450000000     0.0459891  
H993     H      0.036160000000     0.361880000000     0.633730000000     0.0378014  
H994     H      0.159050000000     0.367580000000     0.624130000000     0.0324745  
H995     H      0.590810000000     0.436010000000     0.639890000000     0.0513029  
H996     H      0.636820000000     0.411400000000     0.627000000000     0.0358454  
H997     H      0.138540000000     0.336180000000     0.620910000000     0.0479511  
H998     H      0.517060000000     0.393750000000     0.678710000000     0.0982872  
H999     H      0.621250000000     0.087720000000     0.670610000000     0.0998648  
H1000    H      0.586610000000     0.149170000000     0.548910000000     0.0491313  
H1001    H      0.047920000000     0.157760000000     0.572550000000     0.0425771  
H1002    H      0.142350000000     0.090170000000     0.602170000000     0.0379603  
H1003    H      0.127490000000     0.129850000000     0.574590000000     0.0423023  
H1004    H      0.091270000000     0.045060000000     0.635150000000     0.0493783  
H1005    H      0.039670000000     0.129040000000     0.610970000000     0.0375696  
H1006    H      0.054540000000     0.089320000000     0.638480000000     0.0419046  
H1007    H      0.130190000000     0.053860000000     0.632650000000     0.036497   
H1008    H      0.602440000000     0.182190000000     0.595820000000     0.101479   
H1009    H      0.061380000000     0.623350000000     0.283150000000     0.208461   
H1010    H      0.655020000000     0.577860000000     0.219970000000     0.201816   
H1011    H      0.613830000000     0.019210000000     0.312330000000     0.207317   
H1012    H      0.038210000000     0.025850000000     0.223860000000     0.204246   
H1013    H      0.674740000000     0.627700000000     0.246520000000     0.124482   
H1014    H      0.707120000000     0.577160000000     0.261680000000     0.184424   
H1015    H      0.663110000000     0.987780000000     0.266580000000     0.147959   
H1016    H      0.600120000000     0.966870000000     0.305720000000     0.195085   
H1017    H      0.009880000000     0.992920000000     0.269360000000     0.127009   
H1018    H      0.977670000000     0.044250000000     0.251780000000     0.185739   
H1019    H      0.025810000000     0.628520000000     0.222020000000     0.146058   
H1020    H      0.081060000000     0.668090000000     0.253890000000     0.199958   
H1021    H      0.607840000000     0.958330000000     0.274070000000     0.202669   
H1022    H      0.966710000000     0.076490000000     0.244650000000     0.202873   
H1023    H      0.079340000000     0.657610000000     0.222070000000     0.202249   
H1024    H      0.716960000000     0.548080000000     0.277510000000     0.201888   
H1025    H      0.582570000000     0.829250000000     0.065000000000     0.208991   
H1026    H      0.998070000000     0.749750000000     0.038340000000     0.203811   
H1027    H      0.032420000000     0.839850000000     0.488880000000     0.205898   
H1028    H      0.584270000000     0.740250000000     0.448680000000     0.206693   
H1029    H      0.971140000000     0.795020000000     0.071360000000     0.125458   
H1030    H      0.947520000000     0.793990000000     0.019850000000     0.185987   
H1031    H      0.971600000000     0.806250000000     0.499870000000     0.145374   
H1032    H      0.998180000000     0.827670000000     0.444830000000     0.196414   
H1033    H      0.580760000000     0.782080000000     0.405690000000     0.124904   
H1034    H      0.644920000000     0.763580000000     0.420780000000     0.185389   
H1035    H      0.646520000000     0.783010000000     0.089460000000     0.1411     
H1036    H      0.554480000000     0.816000000000     0.114000000000     0.199045   
H1037    H      0.985630000000     0.795180000000     0.447070000000     0.199879   
H1038    H      0.677020000000     0.756130000000     0.436640000000     0.194541   
H1039    H      0.563590000000     0.782490000000     0.114780000000     0.211213   
H1040    H      0.938600000000     0.784250000000     0.988750000000     0.203372   
H1041    H      0.782690000000     0.588980000000     0.019860000000     0.205216   
H1042    H      0.880280000000     0.031430000000     0.064400000000     0.203913   
H1043    H      0.798850000000     0.959100000000     0.499460000000     0.207677   
H1044    H      0.848460000000     0.553960000000     0.447560000000     0.200952   
H1045    H      0.840590000000     0.063930000000     0.107440000000     0.12793    
H1046    H      0.847180000000     0.004210000000     0.114880000000     0.184951   
H1047    H      0.871390000000     0.942410000000     0.512670000000     0.147303   
H1048    H      0.826350000000     0.936980000000     0.455680000000     0.197174   
H1049    H      0.815780000000     0.519830000000     0.408580000000     0.123884   
H1050    H      0.792150000000     0.575580000000     0.417660000000     0.18347    
H1051    H      0.827880000000     0.620020000000     0.986870000000     0.139711   
H1052    H      0.810730000000     0.628760000000     0.046890000000     0.194012   
H1053    H      0.862100000000     0.947210000000     0.458540000000     0.201247   
H1054    H      0.784330000000     0.607160000000     0.429370000000     0.199054   
H1055    H      0.846580000000     0.629400000000     0.036950000000     0.199825   
H1056    H      0.845930000000     0.969740000000     0.112620000000     0.202453   
H1057    H      0.964150000000     0.868960000000     0.952770000000     0.0972324  
H1058    H      0.980230000000     0.968470000000     0.065410000000     0.0299416  
H1059    H      0.968260000000     0.009510000000     0.511590000000     0.0460822  
H1060    H      0.037860000000     0.960330000000     0.589820000000     0.0379848  
H1061    H      0.002900000000     0.997820000000     0.579200000000     0.0368914  
H1062    H      0.074220000000     0.916030000000     0.543010000000     0.0524694  
H1063    H      0.994830000000     0.967290000000     0.498550000000     0.0389394  
H1064    H      0.030290000000     0.930040000000     0.508990000000     0.044268   
H1065    H      0.064700000000     0.919810000000     0.577520000000     0.0395215  
H1066    H      0.930830000000     0.953950000000     0.075540000000     0.0950033  
H1067    H      0.979710000000     0.672560000000     0.990810000000     0.10121    
H1068    H      0.876150000000     0.603480000000     0.911740000000     0.0451158  
H1069    H      0.860830000000     0.667070000000     0.444270000000     0.0340774  
H1070    H      0.891990000000     0.692520000000     0.548770000000     0.0377899  
H1071    H      0.862420000000     0.661770000000     0.519980000000     0.0422398  
H1072    H      0.931710000000     0.755190000000     0.526370000000     0.0426084  
H1073    H      0.895440000000     0.704570000000     0.450320000000     0.0372055  
H1074    H      0.924790000000     0.735440000000     0.479130000000     0.0401375  
H1075    H      0.923180000000     0.733570000000     0.554390000000     0.0348696  
H1076    H      0.930240000000     0.572270000000     0.933220000000     0.101374   
H1077    H      0.705240000000     0.837490000000     0.453570000000     0.0949979  
H1078    H      0.711210000000     0.945980000000     0.569830000000     0.0437167  
H1079    H      0.700340000000     0.985260000000     0.125900000000     0.032329   
H1080    H      0.660490000000     0.956800000000     0.026340000000     0.0371684  
H1081    H      0.688710000000     0.990680000000     0.052520000000     0.0556119  
H1082    H      0.615010000000     0.909640000000     0.048390000000     0.0472791  
H1083    H      0.686240000000     0.936120000000     0.120640000000     0.0388077  
H1084    H      0.657460000000     0.902420000000     0.094490000000     0.040033   
H1085    H      0.639750000000     0.911890000000     0.020460000000     0.0429496  
H1086    H      0.769060000000     0.917530000000     0.577600000000     0.096256   
H1087    H      0.633270000000     0.672860000000     0.059420000000     0.0999297  
H1088    H      0.676370000000     0.547830000000     0.420150000000     0.0339455  
H1089    H      0.714250000000     0.561020000000     0.421690000000     0.0453005  
H1090    H      0.615950000000     0.626390000000     0.421450000000     0.0385605  
H1091    H      0.635020000000     0.578970000000     0.420370000000     0.0393125  
H1092    H      0.663850000000     0.688110000000     0.440910000000     0.0411417  
H1093    H      0.737640000000     0.625460000000     0.019690000000     0.0362962  
H1094    H      0.720740000000     0.655060000000     0.056370000000     0.0370996  
H1095    H      0.634720000000     0.678850000000     0.418170000000     0.033112   
H1096    H      0.691260000000     0.587530000000     0.985840000000     0.102447   
H1097    H      0.920010000000     0.003230000000     0.413220000000     0.0984271  
H1098    H      0.981830000000     0.630400000000     0.365310000000     0.0321811  
H1099    H      0.019040000000     0.615780000000     0.366130000000     0.046104   
H1100    H      0.919780000000     0.567510000000     0.410450000000     0.043062   
H1101    H      0.937660000000     0.603020000000     0.379320000000     0.0380184  
H1102    H      0.968820000000     0.508660000000     0.435520000000     0.0326348  
H1103    H      0.026310000000     0.069310000000     0.383750000000     0.0512926  
H1104    H      0.008900000000     0.033480000000     0.414710000000     0.034797   
H1105    H      0.954530000000     0.536690000000     0.454730000000     0.0510048  
H1106    H      0.969000000000     0.107040000000     0.325570000000     0.0983811  
H1107    H      0.711470000000     0.450060000000     0.450340000000     0.0981266  
H1108    H      0.715250000000     0.569240000000     0.371580000000     0.031093   
H1109    H      0.712120000000     0.054220000000     0.339540000000     0.0449888  
H1110    H      0.772040000000     0.989130000000     0.390130000000     0.0551477  
H1111    H      0.757730000000     0.032450000000     0.368430000000     0.0326948  
H1112    H      0.720810000000     0.933190000000     0.407700000000     0.0312452  
H1113    H      0.664130000000     0.011900000000     0.379750000000     0.0417732  
H1114    H      0.678790000000     0.969290000000     0.402370000000     0.0394567  
H1115    H      0.759120000000     0.944810000000     0.409170000000     0.0439131  
H1116    H      0.661500000000     0.565740000000     0.377740000000     0.0970695  
H1117    H      0.683160000000     0.008540000000     0.168420000000     0.0993101  
H1118    H      0.739160000000     0.623200000000     0.121880000000     0.0334032  
H1119    H      0.776340000000     0.609680000000     0.116010000000     0.049073   
H1120    H      0.706430000000     0.571550000000     0.195040000000     0.0322161  
H1121    H      0.717910000000     0.608090000000     0.162860000000     0.0391176  
H1122    H      0.734620000000     0.497620000000     0.187670000000     0.0333507  
H1123    H      0.775990000000     0.052950000000     0.120860000000     0.0494872  
H1124    H      0.762980000000     0.016240000000     0.152220000000     0.0388602  
H1125    H      0.727570000000     0.521560000000     0.214050000000     0.0444774  
H1126    H      0.716940000000     0.091070000000     0.089620000000     0.0999634  
H1127    H      0.995680000000     0.572360000000     0.159230000000     0.0982205  
H1128    H      0.976770000000     0.604940000000     0.029400000000     0.0368153  
H1129    H      0.966130000000     0.569540000000     0.023380000000     0.0515616  
H1130    H      0.036870000000     0.598900000000     0.105860000000     0.0449057  
H1131    H      0.010630000000     0.613810000000     0.065270000000     0.0387511  
H1132    H      0.027660000000     0.528830000000     0.136590000000     0.0374759  
H1133    H      0.956570000000     0.039440000000     0.066900000000     0.0442677  
H1134    H      0.981950000000     0.024500000000     0.107990000000     0.0362952  
H1135    H      0.053330000000     0.556390000000     0.131560000000     0.0489287  
H1136    H      0.931390000000     0.112030000000     0.058270000000     0.0995132  
H1137    H      0.502420000000     0.689110000000     0.436030000000     0.0999282  
H1138    H      0.137510000000     0.674360000000     0.370300000000     0.0311386  
H1139    H      0.120690000000     0.640490000000     0.369710000000     0.0476214  
H1140    H      0.021380000000     0.657450000000     0.396480000000     0.0373115  
H1141    H      0.068120000000     0.636130000000     0.380610000000     0.0453703  
H1142    H      0.006200000000     0.734390000000     0.395060000000     0.0476074  
H1143    H      0.603710000000     0.716570000000     0.361900000000     0.0351244  
H1144    H      0.557540000000     0.738170000000     0.378740000000     0.0453244  
H1145    H      0.987870000000     0.701420000000     0.392120000000     0.0333134  
H1146    H      0.627720000000     0.679640000000     0.321000000000     0.0981867  
H1147    H      0.043800000000     0.018180000000     0.380760000000     0.0971952  
H1148    H      0.041610000000     0.868460000000     0.403480000000     0.0467035  
H1149    H      0.580710000000     0.873700000000     0.390660000000     0.0412946  
H1150    H      0.503080000000     0.961390000000     0.409160000000     0.0366053  
H1151    H      0.522450000000     0.917670000000     0.426840000000     0.0397132  
H1152    H      0.508400000000     0.981540000000     0.340520000000     0.0510017  
H1153    H      0.578940000000     0.908810000000     0.357270000000     0.0374758  
H1154    H      0.559090000000     0.952210000000     0.339360000000     0.0449504  
H1155    H      0.496720000000     0.992530000000     0.373020000000     0.0352697  
H1156    H      0.082400000000     0.902580000000     0.438380000000     0.100216   
H1157    H      0.518320000000     0.906260000000     0.063760000000     0.101823   
H1158    H      0.106580000000     0.949810000000     0.163340000000     0.0386383  
H1159    H      0.083730000000     0.979270000000     0.154880000000     0.0499661  
H1160    H      0.997860000000     0.944590000000     0.111900000000     0.0356316  
H1161    H      0.031640000000     0.973590000000     0.138620000000     0.0385986  
H1162    H      0.001060000000     0.868670000000     0.108750000000     0.0489846  
H1163    H      0.582820000000     0.900080000000     0.155760000000     0.0381674  
H1164    H      0.548790000000     0.871220000000     0.129090000000     0.035401   
H1165    H      0.981120000000     0.898690000000     0.098190000000     0.0364242  
H1166    H      0.563100000000     0.939600000000     0.200680000000     0.100468   
H1167    H      0.635320000000     0.641170000000     0.157740000000     0.0995521  
H1168    H      0.507590000000     0.669020000000     0.071760000000     0.0443771  
H1169    H      0.994870000000     0.667210000000     0.107280000000     0.0332391  
H1170    H      0.109430000000     0.636080000000     0.082780000000     0.0374135  
H1171    H      0.065260000000     0.661840000000     0.067540000000     0.0558903  
H1172    H      0.114230000000     0.592150000000     0.132060000000     0.0501624  
H1173    H      0.026460000000     0.655460000000     0.146270000000     0.0396122  
H1174    H      0.070090000000     0.629160000000     0.161370000000     0.0461358  
H1175    H      0.139380000000     0.617490000000     0.118280000000     0.0347941  
H1176    H      0.504090000000     0.710730000000     0.116010000000     0.0990564  
H1177    H      0.031880000000     0.560960000000     0.789020000000     0.206948   
H1178    H      0.624700000000     0.515890000000     0.721430000000     0.202353   
H1179    H      0.574390000000     0.947360000000     0.802360000000     0.209802   
H1180    H      0.996930000000     0.978220000000     0.715170000000     0.202462   
H1181    H      0.649470000000     0.559030000000     0.755330000000     0.124932   
H1182    H      0.674680000000     0.503970000000     0.762560000000     0.184973   
H1183    H      0.621120000000     0.918650000000     0.753270000000     0.147116   
H1184    H      0.547760000000     0.893500000000     0.781990000000     0.201524   
H1185    H      0.962410000000     0.944950000000     0.758240000000     0.126823   
H1186    H      0.940840000000     0.995940000000     0.744700000000     0.184389   
H1187    H      0.000060000000     0.581080000000     0.733930000000     0.146473   
H1188    H      0.056780000000     0.606440000000     0.766590000000     0.197604   
H1189    H      0.565120000000     0.896600000000     0.752510000000     0.203279   
H1190    H      0.932680000000     0.029620000000     0.746730000000     0.204656   
H1191    H      0.056980000000     0.602510000000     0.733380000000     0.201728   
H1192    H      0.680700000000     0.472410000000     0.775110000000     0.202604   
H1193    H      0.651470000000     0.802550000000     0.524170000000     0.209214   
H1194    H      0.041460000000     0.749940000000     0.561670000000     0.202075   
H1195    H      0.043280000000     0.817820000000     0.955180000000     0.207884   
H1196    H      0.622040000000     0.739310000000     0.000970000000     0.203881   
H1197    H      0.071010000000     0.783390000000     0.606520000000     0.124849   
H1198    H      0.011220000000     0.800140000000     0.590990000000     0.184913   
H1199    H      0.003590000000     0.763640000000     0.938040000000     0.146307   
H1200    H      0.062850000000     0.788760000000     0.911760000000     0.197138   
H1201    H      0.653980000000     0.769530000000     0.960780000000     0.124662   
H1202    H      0.678440000000     0.778430000000     0.014750000000     0.186037   
H1203    H      0.687290000000     0.741100000000     0.488640000000     0.141477   
H1204    H      0.670110000000     0.775630000000     0.570940000000     0.199888   
H1205    H      0.061690000000     0.754560000000     0.916260000000     0.201134   
H1206    H      0.684050000000     0.785910000000     0.047030000000     0.195348   
H1207    H      0.662850000000     0.743210000000     0.561380000000     0.210614   
H1208    H      0.978100000000     0.804730000000     0.575780000000     0.202211   
H1209    H      0.754960000000     0.568670000000     0.523630000000     0.208338   
H1210    H      0.868900000000     0.032850000000     0.562350000000     0.202229   
H1211    H      0.778830000000     0.969610000000     0.029260000000     0.208793   
H1212    H      0.851230000000     0.521650000000     0.949870000000     0.204656   
H1213    H      0.823010000000     0.037440000000     0.607460000000     0.12615    
H1214    H      0.848700000000     0.983470000000     0.598620000000     0.184961   
H1215    H      0.843630000000     0.935020000000     0.045590000000     0.14676    
H1216    H      0.793980000000     0.926730000000     0.994790000000     0.19929    
H1217    H      0.790880000000     0.490990000000     0.926710000000     0.127424   
H1218    H      0.799360000000     0.547370000000     0.917330000000     0.18438    
H1219    H      0.784540000000     0.623210000000     0.502970000000     0.143771   
H1220    H      0.767600000000     0.605340000000     0.564910000000     0.197961   
H1221    H      0.831340000000     0.926720000000     0.991350000000     0.20217    
H1222    H      0.796390000000     0.581810000000     0.918160000000     0.203771   
H1223    H      0.800360000000     0.619070000000     0.555340000000     0.199959   
H1224    H      0.857960000000     0.952080000000     0.587290000000     0.20311    
H1225    H      0.016540000000     0.893040000000     0.568660000000     0.099391   
H1226    H      0.974650000000     0.024670000000     0.543810000000     0.0412024  
H1227    H      0.966720000000     0.993550000000     0.042110000000     0.0455568  
H1228    H      0.032760000000     0.930600000000     0.991760000000     0.0457408  
H1229    H      0.019030000000     0.959310000000     0.030160000000     0.0384003  
H1230    H      0.983700000000     0.911980000000     0.939680000000     0.0294882  
H1231    H      0.925260000000     0.941590000000     0.015420000000     0.0492241  
H1232    H      0.939160000000     0.913320000000     0.977320000000     0.0417525  
H1233    H      0.019650000000     0.903530000000     0.953650000000     0.0457345  
H1234    H      0.944600000000     0.975140000000     0.556170000000     0.0988074  
H1235    H      0.962280000000     0.699220000000     0.531890000000     0.102015   
H1236    H      0.836930000000     0.658150000000     0.472080000000     0.0426734  
H1237    H      0.912240000000     0.599420000000     0.896230000000     0.0305799  
H1238    H      0.890770000000     0.672960000000     0.978230000000     0.0359597  
H1239    H      0.871600000000     0.633120000000     0.953370000000     0.0527276  
H1240    H      0.947670000000     0.715830000000     0.958030000000     0.0455326  
H1241    H      0.954500000000     0.628760000000     0.908980000000     0.0374626  
H1242    H      0.973540000000     0.669040000000     0.933490000000     0.0419487  
H1243    H      0.929050000000     0.705640000000     0.988000000000     0.0359961  
H1244    H      0.900000000000     0.634240000000     0.466720000000     0.102002   
H1245    H      0.668760000000     0.873220000000     0.053990000000     0.0982059  
H1246    H      0.702810000000     0.007860000000     0.097250000000     0.0490327  
H1247    H      0.717530000000     0.911710000000     0.582070000000     0.0302631  
H1248    H      0.730810000000     0.858890000000     0.499530000000     0.0416069  
H1249    H      0.744810000000     0.879090000000     0.542660000000     0.0405822  
H1250    H      0.667490000000     0.886810000000     0.456330000000     0.0449096  
H1251    H      0.681420000000     0.945170000000     0.530020000000     0.0452687  
H1252    H      0.666910000000     0.924700000000     0.487180000000     0.0415159  
H1253    H      0.707010000000     0.885300000000     0.448830000000     0.0316069  
H1254    H      0.748690000000     0.967980000000     0.117890000000     0.0966311  
H1255    H      0.609890000000     0.656460000000     0.462400000000     0.102835   
H1256    H      0.699980000000     0.624330000000     0.951060000000     0.0348818  
H1257    H      0.738130000000     0.626700000000     0.962170000000     0.0493548  
H1258    H      0.657010000000     0.694080000000     0.003440000000     0.0367433  
H1259    H      0.673100000000     0.663730000000     0.967090000000     0.0376927  
H1260    H      0.684700000000     0.686140000000     0.075230000000     0.0347346  
H1261    H      0.722410000000     0.608240000000     0.444840000000     0.0534819  
H1262    H      0.702860000000     0.655300000000     0.447500000000     0.0387985  
H1263    H      0.683880000000     0.715320000000     0.053370000000     0.0428252  
H1264    H      0.675540000000     0.539050000000     0.466020000000     0.101697   
H1265    H      0.893430000000     0.946530000000     0.927660000000     0.0984387  
H1266    H      0.956800000000     0.573190000000     0.870880000000     0.0301962  
H1267    H      0.993970000000     0.558860000000     0.867290000000     0.0442027  
H1268    H      0.898690000000     0.506410000000     0.914470000000     0.0405968  
H1269    H      0.913570000000     0.543040000000     0.883920000000     0.0404999  
H1270    H      0.946540000000     0.445940000000     0.931210000000     0.0317018  
H1271    H      0.004370000000     0.012130000000     0.883970000000     0.0532038  
H1272    H      0.989410000000     0.975070000000     0.914490000000     0.0377799  
H1273    H      0.945840000000     0.471670000000     0.956750000000     0.0512974  
H1274    H      0.942370000000     0.056270000000     0.829450000000     0.0980032  
H1275    H      0.687520000000     0.472810000000     0.988550000000     0.0986882  
H1276    H      0.677070000000     0.471460000000     0.845010000000     0.0419253  
H1277    H      0.658520000000     0.937780000000     0.847560000000     0.0415519  
H1278    H      0.727980000000     0.976490000000     0.927210000000     0.0512231  
H1279    H      0.708570000000     0.983970000000     0.881920000000     0.0386926  
H1280    H      0.693450000000     0.924820000000     0.975750000000     0.0344084  
H1281    H      0.639550000000     0.923160000000     0.895860000000     0.0387552  
H1282    H      0.658710000000     0.915850000000     0.941260000000     0.0402711  
H1283    H      0.730300000000     0.931370000000     0.962940000000     0.0464316  
H1284    H      0.621940000000     0.477030000000     0.876120000000     0.10291    
H1285    H      0.644900000000     0.950460000000     0.660050000000     0.0981473  
H1286    H      0.699250000000     0.564000000000     0.619320000000     0.0337181  
H1287    H      0.738570000000     0.555900000000     0.619770000000     0.0515896  
H1288    H      0.673610000000     0.509610000000     0.692840000000     0.0320497  
H1289    H      0.685720000000     0.548430000000     0.663410000000     0.0394039  
H1290    H      0.694770000000     0.435160000000     0.677400000000     0.0338451  
H1291    H      0.734280000000     0.993410000000     0.611700000000     0.0494439  
H1292    H      0.720890000000     0.954500000000     0.640360000000     0.0367601  
H1293    H      0.689880000000     0.457210000000     0.705700000000     0.0444837  
H1294    H      0.691920000000     0.029890000000     0.582970000000     0.0999202  
H1295    H      0.963900000000     0.547400000000     0.662530000000     0.100064   
H1296    H      0.935690000000     0.633770000000     0.568980000000     0.0341485  
H1297    H      0.934380000000     0.607690000000     0.543310000000     0.0516856  
H1298    H      0.999510000000     0.593360000000     0.632130000000     0.0381856  
H1299    H      0.971050000000     0.625050000000     0.603510000000     0.0375079  
H1300    H      0.997070000000     0.515420000000     0.625320000000     0.0383905  
H1301    H      0.929540000000     0.055610000000     0.565200000000     0.0508699  
H1302    H      0.957520000000     0.024420000000     0.594190000000     0.0376117  
H1303    H      0.021920000000     0.542930000000     0.633500000000     0.0448277  
H1304    H      0.889140000000     0.118160000000     0.588150000000     0.0988213  
H1305    H      0.598600000000     0.662840000000     0.961170000000     0.102284   
H1306    H      0.100530000000     0.562920000000     0.879570000000     0.0444198  
H1307    H      0.063200000000     0.575810000000     0.874140000000     0.0442889  
H1308    H      0.066710000000     0.670980000000     0.897960000000     0.0391882  
H1309    H      0.053800000000     0.627520000000     0.875480000000     0.0388472  
H1310    H      0.141480000000     0.684990000000     0.929950000000     0.0361112  
H1311    H      0.637780000000     0.592020000000     0.900180000000     0.0404805  
H1312    H      0.651150000000     0.635030000000     0.923290000000     0.0363397  
H1313    H      0.109720000000     0.700950000000     0.914660000000     0.0454053  
H1314    H      0.606810000000     0.602390000000     0.835830000000     0.102686   
H1315    H      0.003850000000     0.940550000000     0.869980000000     0.100016   
H1316    H      0.112060000000     0.835990000000     0.897480000000     0.048828   
H1317    H      0.632670000000     0.869540000000     0.893960000000     0.0359894  
H1318    H      0.508260000000     0.864760000000     0.891630000000     0.0398226  
H1319    H      0.553270000000     0.846660000000     0.913180000000     0.033808   
H1320    H      0.502110000000     0.893060000000     0.828290000000     0.0468148  
H1321    H      0.608720000000     0.890020000000     0.856150000000     0.039401   
H1322    H      0.563580000000     0.906740000000     0.833580000000     0.0350539  
H1323    H      0.484500000000     0.894550000000     0.860580000000     0.0360573  
H1324    H      0.106730000000     0.887260000000     0.932950000000     0.0990449  
H1325    H      0.651220000000     0.879270000000     0.576940000000     0.0994255  
H1326    H      0.031280000000     0.939580000000     0.638920000000     0.0452157  
H1327    H      0.010220000000     0.908770000000     0.632830000000     0.0323919  
H1328    H      0.081230000000     0.837330000000     0.620850000000     0.0459331  
H1329    H      0.035350000000     0.862480000000     0.633040000000     0.0378514  
H1330    H      0.158410000000     0.867120000000     0.624450000000     0.0325258  
H1331    H      0.590630000000     0.936000000000     0.640500000000     0.0515413  
H1332    H      0.636510000000     0.911130000000     0.627710000000     0.0358973  
H1333    H      0.137610000000     0.835910000000     0.621050000000     0.0480022  
H1334    H      0.516460000000     0.894160000000     0.678660000000     0.0983764  
H1335    H      0.620960000000     0.587700000000     0.669940000000     0.099924   
H1336    H      0.586520000000     0.649080000000     0.548330000000     0.0491062  
H1337    H      0.047240000000     0.657660000000     0.572010000000     0.0424217  
H1338    H      0.141820000000     0.590230000000     0.601710000000     0.037967   
H1339    H      0.126900000000     0.629920000000     0.574180000000     0.0423822  
H1340    H      0.090710000000     0.544890000000     0.634610000000     0.0492914  
H1341    H      0.038890000000     0.628630000000     0.610190000000     0.0375587  
H1342    H      0.053840000000     0.588910000000     0.637670000000     0.0418333  
H1343    H      0.129630000000     0.553710000000     0.632000000000     0.0365162  
H1344    H      0.601950000000     0.682010000000     0.595430000000     0.101498   
N1       N      0.538970000000     0.391930000000     0.557750000000    -0.207827   
N2       N      0.445610000000     0.490070000000     0.541050000000    -0.21142    
N3       N      0.464020000000     0.219810000000     0.533770000000    -0.209694   
N4       N      0.406520000000     0.078320000000     0.931490000000    -0.210016   
N5       N      0.149760000000     0.379070000000     0.043330000000    -0.209908   
N6       N      0.258820000000     0.429280000000     0.566730000000    -0.209608   
N7       N      0.144000000000     0.193770000000     0.056880000000    -0.209167   
N8       N      0.211360000000     0.093710000000     0.978150000000    -0.208531   
N9       N      0.423280000000     0.514430000000     0.428670000000    -0.209264   
N10      N      0.488660000000     0.104270000000     0.332420000000    -0.207958   
N11      N      0.232710000000     0.454490000000     0.443190000000    -0.208878   
N12      N      0.172780000000     0.559650000000     0.362030000000    -0.210647   
N13      N      0.193750000000     0.515520000000     0.189390000000    -0.209697   
N14      N      0.240400000000     0.093410000000     0.090940000000    -0.209968   
N15      N      0.511930000000     0.061490000000     0.158760000000    -0.209445   
N16      N      0.434020000000     0.094700000000     0.044200000000    -0.208885   
N17      N      0.508220000000     0.208320000000     0.429750000000    -0.209225   
N18      N      0.617530000000     0.162400000000     0.330560000000    -0.208631   
N19      N      0.040970000000     0.508290000000     0.361660000000    -0.209095   
N20      N      0.572680000000     0.383990000000     0.431320000000    -0.210389   
N21      N      0.017870000000     0.389520000000     0.073080000000    -0.208728   
N22      N      0.074940000000     0.459240000000     0.191500000000    -0.209131   
N23      N      0.624700000000     0.121850000000     0.157010000000    -0.209545   
N24      N      0.014930000000     0.205730000000     0.100230000000    -0.208695   
N25      N      0.485750000000     0.374730000000     0.959150000000    -0.209581   
N26      N      0.433630000000     0.467150000000     0.058240000000    -0.210913   
N27      N      0.473320000000     0.192920000000     0.981610000000    -0.211125   
N28      N      0.377830000000     0.133110000000     0.468710000000    -0.20997    
N29      N      0.186050000000     0.348110000000     0.465150000000    -0.209356   
N30      N      0.240060000000     0.480820000000     0.102420000000    -0.208852   
N31      N      0.121130000000     0.173920000000     0.461940000000    -0.211052   
N32      N      0.194950000000     0.049960000000     0.461770000000    -0.20855    
N33      N      0.402710000000     0.459900000000     0.939330000000    -0.209827   
N34      N      0.463600000000     0.047100000000     0.835190000000    -0.208533   
N35      N      0.207480000000     0.465810000000     0.980630000000    -0.209491   
N36      N      0.129470000000     0.471080000000     0.858110000000    -0.209526   
N37      N      0.148160000000     0.453040000000     0.679820000000    -0.209809   
N38      N      0.216030000000     0.036130000000     0.590710000000    -0.21007    
N39      N      0.487290000000     0.036170000000     0.658590000000    -0.211048   
N40      N      0.400420000000     0.106900000000     0.570830000000    -0.209166   
N41      N      0.601790000000     0.181930000000     0.952390000000    -0.211265   
N42      N      0.594640000000     0.084600000000     0.842610000000    -0.210632   
N43      N      0.005330000000     0.431680000000     0.851010000000    -0.208731   
N44      N      0.609570000000     0.365960000000     0.930100000000    -0.208851   
N45      N      0.141040000000     0.361090000000     0.585720000000    -0.209235   
N46      N      0.022660000000     0.413950000000     0.673080000000    -0.208642   
N47      N      0.610730000000     0.069030000000     0.665840000000    -0.209415   
N48      N      0.086400000000     0.181930000000     0.580280000000    -0.208831   
N49      N      0.538630000000     0.891820000000     0.557170000000    -0.207943   
N50      N      0.445280000000     0.990440000000     0.541800000000    -0.211289   
N51      N      0.464050000000     0.719700000000     0.532640000000    -0.209804   
N52      N      0.407140000000     0.577870000000     0.931210000000    -0.209983   
N53      N      0.149880000000     0.879310000000     0.043010000000    -0.209861   
N54      N      0.258350000000     0.929950000000     0.567340000000    -0.209611   
N55      N      0.145380000000     0.693980000000     0.056440000000    -0.209308   
N56      N      0.212050000000     0.593600000000     0.977960000000    -0.208533   
N57      N      0.423180000000     0.014440000000     0.429380000000    -0.209362   
N58      N      0.489710000000     0.603820000000     0.331540000000    -0.207909   
N59      N      0.232320000000     0.955260000000     0.443570000000    -0.208889   
N60      N      0.171690000000     0.060140000000     0.362380000000    -0.210662   
N61      N      0.192410000000     0.017040000000     0.189480000000    -0.209828   
N62      N      0.241340000000     0.592930000000     0.091190000000    -0.20972    
N63      N      0.513730000000     0.561300000000     0.157900000000    -0.209428   
N64      N      0.434830000000     0.594130000000     0.043880000000    -0.208868   
N65      N      0.509210000000     0.708370000000     0.428730000000    -0.209173   
N66      N      0.618740000000     0.661970000000     0.329980000000    -0.208574   
N67      N      0.040270000000     0.008490000000     0.362370000000    -0.209061   
N68      N      0.573460000000     0.884110000000     0.431110000000    -0.210406   
N69      N      0.018090000000     0.888910000000     0.073720000000    -0.208762   
N70      N      0.073820000000     0.959720000000     0.192060000000    -0.209227   
N71      N      0.626460000000     0.621210000000     0.156470000000    -0.2095     
N72      N      0.016650000000     0.705060000000     0.100520000000    -0.208695   
N73      N      0.485100000000     0.874290000000     0.960060000000    -0.209556   
N74      N      0.433090000000     0.967580000000     0.058500000000    -0.210869   
N75      N      0.473960000000     0.692330000000     0.981900000000    -0.211042   
N76      N      0.377810000000     0.632740000000     0.468120000000    -0.209952   
N77      N      0.187030000000     0.847860000000     0.465680000000    -0.20948    
N78      N      0.239500000000     0.981130000000     0.102670000000    -0.208867   
N79      N      0.121730000000     0.673790000000     0.461740000000    -0.211069   
N80      N      0.195050000000     0.549480000000     0.461470000000    -0.208509   
N81      N      0.402400000000     0.960420000000     0.939580000000    -0.209819   
N82      N      0.463520000000     0.546830000000     0.834760000000    -0.208463   
N83      N      0.207150000000     0.965690000000     0.980850000000    -0.20942    
N84      N      0.129100000000     0.970410000000     0.858410000000    -0.209475   
N85      N      0.148220000000     0.953500000000     0.679990000000    -0.209779   
N86      N      0.216300000000     0.535480000000     0.590300000000    -0.21002    
N87      N      0.487150000000     0.535450000000     0.658180000000    -0.211129   
N88      N      0.400570000000     0.606460000000     0.570380000000    -0.209144   
N89      N      0.602440000000     0.682020000000     0.952130000000    -0.211207   
N90      N      0.594350000000     0.585170000000     0.841940000000    -0.21073    
N91      N      0.004550000000     0.931580000000     0.850970000000    -0.208748   
N92      N      0.608950000000     0.866120000000     0.930230000000    -0.208885   
N93      N      0.140630000000     0.860870000000     0.585920000000    -0.209189   
N94      N      0.022310000000     0.914390000000     0.673010000000    -0.208636   
N95      N      0.610530000000     0.568950000000     0.665240000000    -0.209506   
N96      N      0.085720000000     0.681790000000     0.579840000000    -0.208718   
N97      N      0.035950000000     0.392850000000     0.557690000000    -0.207857   
N98      N      0.943210000000     0.491960000000     0.542760000000    -0.211307   
N99      N      0.961160000000     0.220690000000     0.533950000000    -0.209889   
N100     N      0.907160000000     0.079290000000     0.933210000000    -0.209949   
N101     N      0.647880000000     0.377830000000     0.045610000000    -0.209809   
N102     N      0.756140000000     0.430710000000     0.565790000000    -0.209595   
N103     N      0.641710000000     0.192430000000     0.057410000000    -0.209239   
N104     N      0.711610000000     0.093630000000     0.978920000000    -0.208566   
N105     N      0.922820000000     0.515570000000     0.429590000000    -0.209155   
N106     N      0.990420000000     0.104680000000     0.333830000000    -0.207736   
N107     N      0.732030000000     0.455580000000     0.441740000000    -0.208894   
N108     N      0.671170000000     0.559490000000     0.359740000000    -0.210834   
N109     N      0.690640000000     0.513510000000     0.187590000000    -0.209907   
N110     N      0.740210000000     0.092980000000     0.091870000000    -0.209893   
N111     N      0.015640000000     0.064600000000     0.159710000000    -0.209681   
N112     N      0.934130000000     0.094620000000     0.046130000000    -0.208986   
N113     N      0.007360000000     0.208250000000     0.430610000000    -0.2093     
N114     N      0.119220000000     0.163140000000     0.333300000000    -0.208617   
N115     N      0.539720000000     0.507760000000     0.360950000000    -0.2091     
N116     N      0.071370000000     0.384030000000     0.432160000000    -0.210435   
N117     N      0.515170000000     0.387930000000     0.072690000000    -0.208755   
N118     N      0.572750000000     0.456960000000     0.191100000000    -0.209073   
N119     N      0.128190000000     0.124100000000     0.159460000000    -0.209689   
N120     N      0.511960000000     0.203860000000     0.098080000000    -0.208534   
N121     N      0.985530000000     0.375020000000     0.960110000000    -0.209545   
N122     N      0.933840000000     0.467170000000     0.059260000000    -0.21088    
N123     N      0.973360000000     0.193550000000     0.985220000000    -0.211035   
N124     N      0.876540000000     0.133940000000     0.467920000000    -0.210181   
N125     N      0.687520000000     0.348140000000     0.462920000000    -0.209533   
N126     N      0.739930000000     0.479960000000     0.102530000000    -0.208864   
N127     N      0.622400000000     0.173940000000     0.458910000000    -0.211076   
N128     N      0.694130000000     0.050120000000     0.459160000000    -0.208564   
N129     N      0.903430000000     0.460550000000     0.940150000000    -0.20989    
N130     N      0.962990000000     0.049240000000     0.836800000000    -0.208683   
N131     N      0.708060000000     0.465830000000     0.981050000000    -0.209498   
N132     N      0.631780000000     0.472250000000     0.857690000000    -0.20967    
N133     N      0.651850000000     0.453230000000     0.679630000000    -0.209667   
N134     N      0.712680000000     0.038220000000     0.588520000000    -0.210153   
N135     N      0.985110000000     0.038600000000     0.660040000000    -0.211087   
N136     N      0.897640000000     0.108290000000     0.571170000000    -0.209111   
N137     N      0.100980000000     0.182200000000     0.952950000000    -0.211357   
N138     N      0.094800000000     0.083740000000     0.844050000000    -0.210597   
N139     N      0.508560000000     0.430850000000     0.850290000000    -0.208679   
N140     N      0.107490000000     0.365980000000     0.928440000000    -0.208947   
N141     N      0.644370000000     0.360270000000     0.583890000000    -0.209194   
N142     N      0.527360000000     0.412100000000     0.672590000000    -0.208566   
N143     N      0.109260000000     0.069560000000     0.667070000000    -0.209435   
N144     N      0.590850000000     0.180770000000     0.577680000000    -0.208654   
N145     N      0.035900000000     0.892840000000     0.556800000000    -0.207919   
N146     N      0.943030000000     0.992290000000     0.543490000000    -0.211226   
N147     N      0.961150000000     0.720810000000     0.532530000000    -0.20985    
N148     N      0.907860000000     0.578890000000     0.932990000000    -0.209919   
N149     N      0.647860000000     0.877900000000     0.045560000000    -0.209768   
N150     N      0.755880000000     0.931160000000     0.566410000000    -0.209646   
N151     N      0.642760000000     0.692460000000     0.057060000000    -0.209261   
N152     N      0.712360000000     0.593580000000     0.978730000000    -0.208563   
N153     N      0.922790000000     0.015370000000     0.430330000000    -0.209214   
N154     N      0.991670000000     0.604350000000     0.332970000000    -0.207641   
N155     N      0.731720000000     0.956120000000     0.442240000000    -0.208815   
N156     N      0.670150000000     0.059680000000     0.360130000000    -0.210858   
N157     N      0.689300000000     0.014720000000     0.187690000000    -0.20989    
N158     N      0.741180000000     0.592610000000     0.092010000000    -0.20978    
N159     N      0.017630000000     0.564660000000     0.158850000000    -0.209691   
N160     N      0.935020000000     0.593960000000     0.045840000000    -0.208859   
N161     N      0.008570000000     0.708350000000     0.429420000000    -0.209296   
N162     N      0.120840000000     0.662540000000     0.332800000000    -0.208614   
N163     N      0.538860000000     0.008020000000     0.361620000000    -0.209037   
N164     N      0.072960000000     0.884020000000     0.431710000000    -0.210413   
N165     N      0.515140000000     0.887240000000     0.073290000000    -0.208758   
N166     N      0.571300000000     0.957530000000     0.191570000000    -0.209132   
N167     N      0.130320000000     0.623370000000     0.158990000000    -0.209633   
N168     N      0.513210000000     0.703090000000     0.098220000000    -0.208402   
N169     N      0.984820000000     0.874520000000     0.961120000000    -0.209574   
N170     N      0.933310000000     0.967650000000     0.059550000000    -0.210999   
N171     N      0.974160000000     0.692920000000     0.985820000000    -0.210951   
N172     N      0.876500000000     0.633680000000     0.467270000000    -0.21011    
N173     N      0.688090000000     0.848200000000     0.463400000000    -0.209443   
N174     N      0.739380000000     0.980230000000     0.102810000000    -0.208921   
N175     N      0.623000000000     0.673980000000     0.458640000000    -0.211063   
N176     N      0.694170000000     0.549860000000     0.458760000000    -0.208633   
N177     N      0.903130000000     0.961110000000     0.940430000000    -0.209888   
N178     N      0.962830000000     0.549020000000     0.836430000000    -0.208635   
N179     N      0.707730000000     0.965680000000     0.981280000000    -0.209483   
N180     N      0.631380000000     0.971650000000     0.858000000000    -0.209562   
N181     N      0.651740000000     0.953690000000     0.679810000000    -0.209646   
N182     N      0.712770000000     0.537760000000     0.588000000000    -0.210103   
N183     N      0.984760000000     0.537860000000     0.659700000000    -0.211148   
N184     N      0.897680000000     0.607940000000     0.570760000000    -0.209174   
N185     N      0.101770000000     0.682340000000     0.952700000000    -0.211277   
N186     N      0.094390000000     0.584400000000     0.843370000000    -0.210607   
N187     N      0.507860000000     0.930730000000     0.850360000000    -0.2088     
N188     N      0.106750000000     0.866170000000     0.928430000000    -0.208894   
N189     N      0.643820000000     0.860150000000     0.584110000000    -0.209188   
N190     N      0.526860000000     0.912490000000     0.672620000000    -0.208607   
N191     N      0.108780000000     0.569500000000     0.666440000000    -0.20955    
N192     N      0.590520000000     0.680610000000     0.577210000000    -0.208697   
O1       O      0.516610000000     0.071800000000     0.203050000000    -0.366918   
O2       O      0.557570000000     0.552540000000     0.179190000000    -0.36066    
O3       O      0.616210000000     0.142640000000     0.289590000000    -0.363276   
O4       O      0.100110000000     0.119800000000     0.328150000000    -0.356959   
O5       O      0.622340000000     0.121450000000     0.202110000000    -0.36709    
O6       O      0.113370000000     0.084620000000     0.180530000000    -0.355805   
O7       O      0.504710000000     0.091100000000     0.291410000000    -0.357034   
O8       O      0.538820000000     0.591730000000     0.325790000000    -0.355944   
O9       O      0.514480000000     0.123860000000     0.239430000000    -0.342648   
O10      O      0.481230000000     0.561660000000     0.247100000000    -0.51203    
O11      O      0.581500000000     0.153780000000     0.238400000000    -0.512381   
O12      O      0.159230000000     0.143280000000     0.248490000000    -0.325603   
O13      O      0.572430000000     0.092580000000     0.223160000000    -0.470999   
O14      O      0.566240000000     0.105930000000     0.274610000000    -0.608169   
O15      O      0.052450000000     0.505380000000     0.317350000000    -0.361614   
O16      O      0.566520000000     0.541620000000     0.341100000000    -0.361117   
O17      O      0.178850000000     0.530310000000     0.230540000000    -0.370151   
O18      O      0.144280000000     0.030140000000     0.195860000000    -0.360173   
O19      O      0.167970000000     0.552060000000     0.317410000000    -0.359482   
O20      O      0.126790000000     0.067940000000     0.342490000000    -0.358164   
O21      O      0.071230000000     0.479980000000     0.231950000000    -0.363974   
O22      O      0.586780000000     0.501950000000     0.195060000000    -0.354938   
O23      O      0.100980000000     0.470840000000     0.287240000000    -0.513789   
O24      O      0.525630000000     0.478750000000     0.271840000000    -0.326223   
O25      O      0.168790000000     0.499610000000     0.284050000000    -0.341137   
O26      O      0.202830000000     0.061450000000     0.272540000000    -0.510796   
O27      O      0.111030000000     0.530440000000     0.298030000000    -0.608152   
O28      O      0.117640000000     0.517230000000     0.246840000000    -0.47065    
O29      O      0.544270000000     0.548450000000     0.287680000000    -0.473809   
O30      O      0.139570000000     0.075750000000     0.234090000000    -0.624997   
O31      O      0.551010000000     0.533750000000     0.233070000000    -0.624116   
O32      O      0.132960000000     0.089480000000     0.289140000000    -0.47604    
O33      O      0.136780000000     0.239700000000     0.048840000000    -0.366219   
O34      O      0.088250000000     0.197940000000     0.487250000000    -0.358198   
O35      O      0.023110000000     0.342580000000     0.072490000000    -0.361749   
O36      O      0.540960000000     0.368130000000     0.038980000000    -0.357581   
O37      O      0.022820000000     0.249790000000     0.086390000000    -0.36082    
O38      O      0.535140000000     0.212000000000     0.058400000000    -0.358932   
O39      O      0.139960000000     0.333040000000     0.041560000000    -0.36371    
O40      O      0.141880000000     0.347190000000     0.488080000000    -0.352061   
O41      O      0.127780000000     0.290260000000     0.086020000000    -0.339103   
O42      O      0.154330000000     0.260950000000     0.439850000000    -0.510685   
O43      O      0.057400000000     0.300380000000     0.105990000000    -0.512357   
O44      O      0.481880000000     0.295500000000     0.083050000000    -0.327585   
O45      O      0.076010000000     0.263100000000     0.058160000000    -0.45942    
O46      O      0.078840000000     0.317460000000     0.051220000000    -0.607938   
O47      O      0.561850000000     0.338850000000     0.439310000000    -0.363075   
O48      O      0.083920000000     0.365210000000     0.472070000000    -0.359732   
O49      O      0.489740000000     0.260780000000     0.533780000000    -0.363553   
O50      O      0.516490000000     0.206380000000     0.001960000000    -0.357759   
O51      O      0.528610000000     0.347210000000     0.547780000000    -0.354847   
O52      O      0.526710000000     0.362030000000     0.983370000000    -0.354642   
O53      O      0.529150000000     0.250500000000     0.437990000000    -0.364123   
O54      O      0.028760000000     0.216430000000     0.470680000000    -0.355326   
O55      O      0.501910000000     0.308170000000     0.448930000000    -0.515672   
O56      O      0.059560000000     0.290390000000     0.409440000000    -0.327564   
O57      O      0.481200000000     0.319680000000     0.514370000000    -0.341638   
O58      O      0.452600000000     0.288340000000     0.998300000000    -0.51542    
O59      O      0.544880000000     0.323080000000     0.493720000000    -0.609189   
O60      O      0.526000000000     0.270880000000     0.492800000000    -0.469673   
O61      O      0.101680000000     0.307890000000     0.466350000000    -0.476862   
O62      O      0.512740000000     0.259690000000     0.029810000000    -0.624737   
O63      O      0.081360000000     0.252530000000     0.465990000000    -0.624917   
O64      O      0.516030000000     0.318050000000     0.023280000000    -0.477353   
O65      O      0.359350000000     0.075230000000     0.949220000000    -0.362017   
O66      O      0.381810000000     0.089010000000     0.482650000000    -0.359587   
O67      O      0.287160000000     0.084480000000     0.074690000000    -0.366953   
O68      O      0.246580000000     0.563330000000     0.056530000000    -0.357346   
O69      O      0.384350000000     0.086860000000     0.049170000000    -0.365726   
O70      O      0.413010000000     0.557950000000     0.022090000000    -0.357307   
O71      O      0.260850000000     0.082760000000     0.972510000000    -0.358889   
O72      O      0.223210000000     0.029730000000     0.493590000000    -0.358294   
O73      O      0.315090000000     0.114140000000     0.969590000000    -0.335971   
O74      O      0.290420000000     0.087820000000     0.434270000000    -0.515565   
O75      O      0.328360000000     0.119710000000     0.042140000000    -0.516368   
O76      O      0.347970000000     0.580440000000     0.095770000000    -0.331849   
O77      O      0.351670000000     0.070660000000     0.005210000000    -0.469919   
O78      O      0.293650000000     0.072600000000     0.017090000000    -0.612924   
O79      O      0.278680000000     0.475080000000     0.447080000000    -0.358764   
O80      O      0.244490000000     0.977040000000     0.482000000000    -0.356624   
O81      O      0.395470000000     0.483790000000     0.542810000000    -0.37246    
O82      O      0.412220000000     0.496920000000     0.028580000000    -0.358456   
O83      O      0.301150000000     0.452420000000     0.555480000000    -0.359608   
O84      O      0.246240000000     0.504930000000     0.063710000000    -0.357051   
O85      O      0.375330000000     0.504200000000     0.440500000000    -0.362582   
O86      O      0.403570000000     0.032960000000     0.467400000000    -0.356333   
O87      O      0.342030000000     0.450570000000     0.456490000000    -0.514533   
O88      O      0.321970000000     0.000690000000     0.413280000000    -0.329561   
O89      O      0.355130000000     0.437420000000     0.522040000000    -0.341038   
O90      O      0.344700000000     0.487550000000     0.103290000000    -0.510954   
O91      O      0.307120000000     0.476480000000     0.501410000000    -0.608757   
O92      O      0.362500000000     0.496050000000     0.496230000000    -0.470856   
O93      O      0.280800000000     0.024470000000     0.469940000000    -0.472593   
O94      O      0.364260000000     0.530000000000     0.050580000000    -0.624162   
O95      O      0.340010000000     0.045860000000     0.464220000000    -0.622476   
O96      O      0.301850000000     0.532260000000     0.063130000000    -0.477664   
O97      O      0.489450000000     0.030970000000     0.703420000000    -0.369103   
O98      O      0.527210000000     0.513500000000     0.676670000000    -0.358637   
O99      O      0.593680000000     0.071530000000     0.799300000000    -0.364483   
O100     O      0.069990000000     0.044560000000     0.832390000000    -0.35688    
O101     O      0.601070000000     0.063890000000     0.709940000000    -0.366474   
O102     O      0.084940000000     0.030860000000     0.681540000000    -0.355789   
O103     O      0.476980000000     0.035680000000     0.792900000000    -0.3581     
O104     O      0.509180000000     0.527160000000     0.827270000000    -0.357368   
O105     O      0.488080000000     0.072100000000     0.747200000000    -0.338031   
O106     O      0.449470000000     0.511620000000     0.744960000000    -0.514078   
O107     O      0.562340000000     0.094900000000     0.750000000000    -0.514397   
O108     O      0.134080000000     0.072990000000     0.757670000000    -0.323825   
O109     O      0.545400000000     0.038510000000     0.726170000000    -0.469853   
O110     O      0.539580000000     0.043850000000     0.778510000000    -0.61091    
O111     O      0.013440000000     0.436620000000     0.806300000000    -0.365063   
O112     O      0.528320000000     0.470620000000     0.834580000000    -0.358416   
O113     O      0.135350000000     0.463500000000     0.722740000000    -0.369285   
O114     O      0.102630000000     0.971820000000     0.688500000000    -0.359715   
O115     O      0.125700000000     0.471910000000     0.812620000000    -0.357188   
O116     O      0.087480000000     0.988220000000     0.839250000000    -0.357996   
O117     O      0.022430000000     0.427630000000     0.716410000000    -0.361651   
O118     O      0.546680000000     0.454130000000     0.683620000000    -0.357358   
O119     O      0.047900000000     0.404680000000     0.766290000000    -0.511985   
O120     O      0.481050000000     0.426410000000     0.757530000000    -0.329313   
O121     O      0.121500000000     0.426850000000     0.771120000000    -0.34295    
O122     O      0.164250000000     0.983970000000     0.769040000000    -0.512563   
O123     O      0.067460000000     0.461630000000     0.789440000000    -0.610173   
O124     O      0.073130000000     0.456250000000     0.736960000000    -0.469742   
O125     O      0.508670000000     0.487630000000     0.783100000000    -0.476632   
O126     O      0.104760000000     0.011550000000     0.733150000000    -0.62413    
O127     O      0.515250000000     0.482030000000     0.726520000000    -0.623595   
O128     O      0.098990000000     0.017020000000     0.789640000000    -0.475201   
O129     O      0.129410000000     0.219520000000     0.469440000000    -0.372235   
O130     O      0.098550000000     0.208610000000     0.042930000000    -0.357142   
O131     O      0.121230000000     0.318560000000     0.576850000000    -0.359735   
O132     O      0.626810000000     0.351030000000     0.542570000000    -0.357446   
O133     O      0.096040000000     0.227490000000     0.573390000000    -0.360288   
O134     O      0.573260000000     0.201730000000     0.540180000000    -0.356347   
O135     O      0.162250000000     0.307320000000     0.471420000000    -0.364457   
O136     O      0.106040000000     0.364250000000     0.025050000000    -0.35973    
O137     O      0.174680000000     0.253550000000     0.504750000000    -0.341484   
O138     O      0.171690000000     0.283690000000     0.030560000000    -0.513711   
O139     O      0.153020000000     0.262670000000     0.566930000000    -0.512822   
O140     O      0.596370000000     0.274460000000     0.603610000000    -0.327912   
O141     O      0.110420000000     0.244290000000     0.520610000000    -0.462171   
O142     O      0.129210000000     0.296460000000     0.521360000000    -0.607715   
O143     O      0.602620000000     0.321530000000     0.943770000000    -0.363458   
O144     O      0.088510000000     0.358170000000     0.969600000000    -0.357414   
O145     O      0.484990000000     0.238450000000     0.983450000000    -0.371043   
O146     O      0.512900000000     0.220290000000     0.522250000000    -0.359671   
O147     O      0.490320000000     0.330430000000     0.972840000000    -0.360039   
O148     O      0.569570000000     0.368570000000     0.529350000000    -0.357373   
O149     O      0.598820000000     0.228810000000     0.954850000000    -0.367473   
O150     O      0.078520000000     0.202170000000     0.988410000000    -0.359768   
O151     O      0.568970000000     0.272880000000     0.922040000000    -0.514488   
O152     O      0.139540000000     0.273310000000     0.944700000000    -0.327882   
O153     O      0.493090000000     0.280150000000     0.941760000000    -0.33731    
O154     O      0.503500000000     0.300660000000     0.575930000000    -0.515523   
O155     O      0.548500000000     0.307650000000     0.970480000000    -0.614192   
O156     O      0.545150000000     0.253420000000     0.976470000000    -0.470334   
O157     O      0.110140000000     0.311150000000     0.997170000000    -0.475927   
O158     O      0.554520000000     0.259220000000     0.547040000000    -0.623537   
O159     O      0.106340000000     0.253060000000     0.004480000000    -0.624051   
O160     O      0.574880000000     0.314830000000     0.547630000000    -0.474551   
O161     O      0.335420000000     0.106790000000     0.473010000000    -0.363395   
O162     O      0.398540000000     0.050760000000     0.967090000000    -0.357676   
O163     O      0.263930000000     0.047050000000     0.578630000000    -0.363224   
O164     O      0.234010000000     0.521360000000     0.550230000000    -0.358599   
O165     O      0.355640000000     0.085010000000     0.567180000000    -0.364044   
O166     O      0.392430000000     0.577460000000     0.535340000000    -0.358989   
O167     O      0.244010000000     0.062680000000     0.466510000000    -0.354514   
O168     O      0.231410000000     0.058640000000     0.001870000000    -0.356045   
O169     O      0.271360000000     0.112800000000     0.493800000000    -0.345665   
O170     O      0.298950000000     0.063930000000     0.926210000000    -0.516531   
O171     O      0.290760000000     0.101830000000     0.561390000000    -0.514672   
O172     O      0.320610000000     0.554040000000     0.603950000000    -0.327649   
O173     O      0.330480000000     0.077170000000     0.516140000000    -0.468916   
O174     O      0.274990000000     0.057740000000     0.521300000000    -0.609426   
O175     O      0.258090000000     0.471550000000     0.976960000000    -0.366914   
O176     O      0.230160000000     0.998820000000     0.005430000000    -0.358973   
O177     O      0.383760000000     0.476020000000     0.060900000000    -0.371187   
O178     O      0.414890000000     0.521000000000     0.520470000000    -0.359023   
O179     O      0.286230000000     0.483500000000     0.083700000000    -0.359931   
O180     O      0.255610000000     0.466600000000     0.539200000000    -0.353975   
O181     O      0.356500000000     0.468400000000     0.956400000000    -0.363547   
O182     O      0.396940000000     0.992620000000     0.972380000000    -0.353409   
O183     O      0.312100000000     0.436000000000     0.990200000000    -0.511986   
O184     O      0.298400000000     0.973090000000     0.933830000000    -0.328965   
O185     O      0.325940000000     0.441210000000     0.055000000000    -0.342643   
O186     O      0.354220000000     0.468210000000     0.582860000000    -0.512176   
O187     O      0.292020000000     0.484780000000     0.024480000000    -0.609593   
O188     O      0.350480000000     0.482300000000     0.012570000000    -0.47093    
O189     O      0.279180000000     0.025210000000     0.978800000000    -0.478141   
O190     O      0.356780000000     0.529200000000     0.547820000000    -0.623394   
O191     O      0.341540000000     0.023010000000     0.966790000000    -0.623057   
O192     O      0.297480000000     0.508010000000     0.553700000000    -0.477895   
O193     O      0.518200000000     0.571470000000     0.202230000000    -0.367016   
O194     O      0.555940000000     0.052960000000     0.179880000000    -0.36056    
O195     O      0.617560000000     0.642160000000     0.289020000000    -0.363097   
O196     O      0.101510000000     0.619300000000     0.327590000000    -0.35704    
O197     O      0.624000000000     0.620860000000     0.201570000000    -0.366981   
O198     O      0.115290000000     0.583950000000     0.180050000000    -0.356063   
O199     O      0.505930000000     0.590690000000     0.290570000000    -0.357014   
O200     O      0.537730000000     0.092130000000     0.326540000000    -0.355896   
O201     O      0.515960000000     0.623480000000     0.238650000000    -0.342629   
O202     O      0.479860000000     0.062000000000     0.248050000000    -0.511917   
O203     O      0.583070000000     0.653300000000     0.237690000000    -0.512365   
O204     O      0.161150000000     0.642450000000     0.248120000000    -0.325433   
O205     O      0.573940000000     0.592090000000     0.222510000000    -0.471056   
O206     O      0.567580000000     0.605520000000     0.273910000000    -0.608362   
O207     O      0.051570000000     0.005660000000     0.318020000000    -0.361601   
O208     O      0.565470000000     0.041980000000     0.341720000000    -0.361133   
O209     O      0.177480000000     0.031330000000     0.230790000000    -0.370181   
O210     O      0.145760000000     0.529200000000     0.195530000000    -0.360344   
O211     O      0.166770000000     0.052740000000     0.317740000000    -0.359601   
O212     O      0.127960000000     0.567450000000     0.342030000000    -0.358139   
O213     O      0.070100000000     0.980420000000     0.232530000000    -0.36399    
O214     O      0.585360000000     0.002500000000     0.195590000000    -0.35508    
O215     O      0.100170000000     0.971390000000     0.287670000000    -0.51362    
O216     O      0.524520000000     0.979100000000     0.272540000000    -0.326137   
O217     O      0.167750000000     0.000410000000     0.284220000000    -0.341297   
O218     O      0.204220000000     0.560450000000     0.272280000000    -0.510739   
O219     O      0.109910000000     0.031020000000     0.298510000000    -0.608038   
O220     O      0.116370000000     0.017860000000     0.247280000000    -0.470552   
O221     O      0.543080000000     0.048820000000     0.288380000000    -0.473831   
O222     O      0.141190000000     0.575000000000     0.233680000000    -0.624921   
O223     O      0.549650000000     0.034200000000     0.233730000000    -0.624108   
O224     O      0.134420000000     0.588800000000     0.288710000000    -0.475941   
O225     O      0.137820000000     0.739870000000     0.048460000000    -0.366308   
O226     O      0.088680000000     0.697850000000     0.486830000000    -0.3581     
O227     O      0.023630000000     0.842010000000     0.072980000000    -0.361797   
O228     O      0.540940000000     0.867680000000     0.039450000000    -0.357631   
O229     O      0.024160000000     0.749200000000     0.086730000000    -0.360693   
O230     O      0.536100000000     0.711470000000     0.058450000000    -0.359015   
O231     O      0.140350000000     0.833230000000     0.041240000000    -0.363816   
O232     O      0.142620000000     0.847000000000     0.488230000000    -0.352122   
O233     O      0.128830000000     0.790320000000     0.085730000000    -0.339015   
O234     O      0.155540000000     0.760750000000     0.440150000000    -0.510685   
O235     O      0.058570000000     0.799990000000     0.106180000000    -0.512418   
O236     O      0.482540000000     0.794610000000     0.083610000000    -0.327492   
O237     O      0.077000000000     0.762880000000     0.058170000000    -0.459401   
O238     O      0.079410000000     0.817280000000     0.051310000000    -0.607667   
O239     O      0.562600000000     0.838940000000     0.438910000000    -0.363007   
O240     O      0.084950000000     0.865140000000     0.471720000000    -0.359678   
O241     O      0.489740000000     0.760680000000     0.532860000000    -0.363531   
O242     O      0.517180000000     0.705920000000     0.002090000000    -0.357635   
O243     O      0.528400000000     0.847110000000     0.547100000000    -0.3549     
O244     O      0.526370000000     0.861690000000     0.983900000000    -0.354791   
O245     O      0.530010000000     0.750550000000     0.437200000000    -0.364326   
O246     O      0.029480000000     0.716470000000     0.469710000000    -0.355229   
O247     O      0.502620000000     0.808190000000     0.448050000000    -0.515626   
O248     O      0.061150000000     0.790410000000     0.408820000000    -0.327479   
O249     O      0.481330000000     0.819550000000     0.513300000000    -0.341744   
O250     O      0.452780000000     0.787520000000     0.998900000000    -0.515428   
O251     O      0.545200000000     0.823050000000     0.493160000000    -0.608974   
O252     O      0.526340000000     0.770860000000     0.492030000000    -0.469749   
O253     O      0.102630000000     0.807780000000     0.466140000000    -0.476918   
O254     O      0.513290000000     0.759140000000     0.030110000000    -0.624575   
O255     O      0.082180000000     0.752470000000     0.465560000000    -0.624741   
O256     O      0.516210000000     0.817520000000     0.023730000000    -0.477271   
O257     O      0.360000000000     0.574930000000     0.949020000000    -0.362199   
O258     O      0.381880000000     0.588680000000     0.482150000000    -0.359648   
O259     O      0.288030000000     0.584040000000     0.074760000000    -0.366666   
O260     O      0.245810000000     0.063580000000     0.056500000000    -0.357345   
O261     O      0.385160000000     0.586350000000     0.048980000000    -0.365636   
O262     O      0.412340000000     0.058450000000     0.022420000000    -0.357444   
O263     O      0.261530000000     0.582600000000     0.972340000000    -0.358814   
O264     O      0.223400000000     0.529150000000     0.493190000000    -0.358278   
O265     O      0.315870000000     0.613980000000     0.969730000000    -0.336287   
O266     O      0.290350000000     0.587460000000     0.433920000000    -0.515676   
O267     O      0.329170000000     0.619340000000     0.042110000000    -0.516405   
O268     O      0.347060000000     0.080930000000     0.095920000000    -0.33185    
O269     O      0.352390000000     0.570310000000     0.005050000000    -0.469912   
O270     O      0.294370000000     0.572380000000     0.017000000000    -0.612806   
O271     O      0.278390000000     0.975650000000     0.447540000000    -0.358754   
O272     O      0.244810000000     0.476410000000     0.481560000000    -0.356795   
O273     O      0.395130000000     0.984210000000     0.543500000000    -0.372306   
O274     O      0.411670000000     0.997370000000     0.028880000000    -0.358546   
O275     O      0.300730000000     0.953020000000     0.556130000000    -0.359456   
O276     O      0.245640000000     0.005150000000     0.063890000000    -0.356908   
O277     O      0.375190000000     0.004350000000     0.441170000000    -0.36273    
O278     O      0.403710000000     0.532720000000     0.466820000000    -0.356356   
O279     O      0.341600000000     0.950860000000     0.457180000000    -0.514587   
O280     O      0.321950000000     0.500440000000     0.412730000000    -0.329546   
O281     O      0.354730000000     0.937850000000     0.522700000000    -0.341049   
O282     O      0.344160000000     0.988120000000     0.103590000000    -0.511175   
O283     O      0.306810000000     0.976950000000     0.501980000000    -0.608701   
O284     O      0.362240000000     0.996430000000     0.496830000000    -0.4709     
O285     O      0.280970000000     0.524010000000     0.469480000000    -0.472582   
O286     O      0.363620000000     0.030460000000     0.050830000000    -0.624298   
O287     O      0.340130000000     0.545510000000     0.463730000000    -0.622563   
O288     O      0.301170000000     0.032600000000     0.063310000000    -0.477617   
O289     O      0.489400000000     0.530450000000     0.703030000000    -0.369116   
O290     O      0.527180000000     0.013920000000     0.677030000000    -0.358583   
O291     O      0.593470000000     0.571910000000     0.798690000000    -0.36448    
O292     O      0.069890000000     0.545000000000     0.831900000000    -0.356926   
O293     O      0.600920000000     0.563930000000     0.709350000000    -0.366388   
O294     O      0.084720000000     0.530730000000     0.681080000000    -0.355958   
O295     O      0.476990000000     0.535410000000     0.792500000000    -0.358296   
O296     O      0.509110000000     0.027160000000     0.827660000000    -0.357615   
O297     O      0.487970000000     0.571800000000     0.746680000000    -0.338172   
O298     O      0.449340000000     0.012070000000     0.745270000000    -0.51464    
O299     O      0.562030000000     0.594920000000     0.749280000000    -0.514679   
O300     O      0.133730000000     0.573410000000     0.757010000000    -0.323809   
O301     O      0.545370000000     0.538370000000     0.725700000000    -0.469901   
O302     O      0.539570000000     0.543870000000     0.778040000000    -0.611185   
O303     O      0.012860000000     0.936620000000     0.806300000000    -0.365131   
O304     O      0.527850000000     0.970460000000     0.834790000000    -0.358473   
O305     O      0.135210000000     0.963410000000     0.722990000000    -0.369436   
O306     O      0.102690000000     0.471670000000     0.688260000000    -0.359857   
O307     O      0.125390000000     0.971360000000     0.812910000000    -0.357117   
O308     O      0.087770000000     0.488730000000     0.838960000000    -0.358024   
O309     O      0.022040000000     0.927910000000     0.716380000000    -0.361406   
O310     O      0.546350000000     0.954410000000     0.683800000000    -0.357448   
O311     O      0.047100000000     0.904610000000     0.766230000000    -0.512049   
O312     O      0.480430000000     0.926760000000     0.757550000000    -0.329619   
O313     O      0.120810000000     0.926380000000     0.771160000000    -0.343134   
O314     O      0.164440000000     0.484750000000     0.768600000000    -0.51282    
O315     O      0.067080000000     0.961400000000     0.789610000000    -0.609917   
O316     O      0.072820000000     0.956200000000     0.737110000000    -0.469736   
O317     O      0.508380000000     0.987730000000     0.783370000000    -0.476756   
O318     O      0.104740000000     0.511730000000     0.732720000000    -0.624216   
O319     O      0.514980000000     0.982300000000     0.726770000000    -0.623619   
O320     O      0.099020000000     0.517410000000     0.789220000000    -0.475255   
O321     O      0.130080000000     0.719370000000     0.469390000000    -0.372096   
O322     O      0.099750000000     0.708580000000     0.042740000000    -0.357274   
O323     O      0.120850000000     0.818370000000     0.576830000000    -0.359731   
O324     O      0.626650000000     0.850950000000     0.542650000000    -0.357447   
O325     O      0.095530000000     0.727350000000     0.573060000000    -0.360272   
O326     O      0.573220000000     0.701630000000     0.539640000000    -0.356289   
O327     O      0.163120000000     0.807100000000     0.471780000000    -0.364593   
O328     O      0.106090000000     0.864280000000     0.025020000000    -0.359726   
O329     O      0.175010000000     0.753260000000     0.505240000000    -0.341575   
O330     O      0.172290000000     0.784070000000     0.029960000000    -0.513212   
O331     O      0.152650000000     0.762430000000     0.567190000000    -0.512566   
O332     O      0.595710000000     0.774270000000     0.603340000000    -0.328049   
O333     O      0.110560000000     0.744140000000     0.520450000000    -0.462176   
O334     O      0.129460000000     0.796280000000     0.521400000000    -0.607578   
O335     O      0.602340000000     0.821630000000     0.943830000000    -0.363506   
O336     O      0.088110000000     0.858190000000     0.969700000000    -0.357325   
O337     O      0.485390000000     0.737910000000     0.983820000000    -0.37107    
O338     O      0.512980000000     0.720220000000     0.521330000000    -0.359698   
O339     O      0.490050000000     0.829960000000     0.973580000000    -0.360137   
O340     O      0.569540000000     0.868490000000     0.529020000000    -0.357311   
O341     O      0.599170000000     0.728870000000     0.954690000000    -0.367482   
O342     O      0.079380000000     0.702110000000     0.988310000000    -0.359796   
O343     O      0.568770000000     0.772890000000     0.922140000000    -0.514211   
O344     O      0.139460000000     0.773680000000     0.944270000000    -0.327856   
O345     O      0.493120000000     0.779820000000     0.942180000000    -0.337737   
O346     O      0.503090000000     0.800560000000     0.575050000000    -0.515651   
O347     O      0.548420000000     0.807440000000     0.970740000000    -0.613894   
O348     O      0.545420000000     0.753170000000     0.976600000000    -0.470291   
O349     O      0.110280000000     0.811250000000     0.997040000000    -0.475927   
O350     O      0.554380000000     0.759110000000     0.546450000000    -0.623314   
O351     O      0.106940000000     0.753120000000     0.004270000000    -0.624379   
O352     O      0.574710000000     0.814720000000     0.547280000000    -0.474585   
O353     O      0.335450000000     0.606370000000     0.472500000000    -0.363557   
O354     O      0.399120000000     0.550290000000     0.966790000000    -0.357717   
O355     O      0.264190000000     0.546450000000     0.578200000000    -0.363281   
O356     O      0.233730000000     0.022010000000     0.550640000000    -0.358728   
O357     O      0.355820000000     0.584520000000     0.566730000000    -0.364066   
O358     O      0.392270000000     0.077850000000     0.535830000000    -0.358847   
O359     O      0.244110000000     0.562180000000     0.466150000000    -0.354677   
O360     O      0.232090000000     0.558590000000     0.001780000000    -0.356056   
O361     O      0.271460000000     0.612290000000     0.493560000000    -0.345782   
O362     O      0.299610000000     0.563960000000     0.926080000000    -0.51653    
O363     O      0.290940000000     0.601240000000     0.561040000000    -0.5147     
O364     O      0.320310000000     0.054690000000     0.604410000000    -0.327645   
O365     O      0.330620000000     0.576710000000     0.515710000000    -0.469022   
O366     O      0.275160000000     0.557190000000     0.520900000000    -0.609779   
O367     O      0.257740000000     0.971570000000     0.977220000000    -0.366898   
O368     O      0.230640000000     0.498800000000     0.005270000000    -0.359079   
O369     O      0.383230000000     0.976470000000     0.061220000000    -0.371089   
O370     O      0.414640000000     0.021360000000     0.521100000000    -0.359019   
O371     O      0.285680000000     0.983870000000     0.083970000000    -0.359835   
O372     O      0.255250000000     0.967200000000     0.539700000000    -0.354018   
O373     O      0.356180000000     0.968660000000     0.956760000000    -0.363566   
O374     O      0.397380000000     0.492130000000     0.972120000000    -0.353278   
O375     O      0.311840000000     0.936220000000     0.990570000000    -0.512193   
O376     O      0.298700000000     0.473020000000     0.933540000000    -0.32891    
O377     O      0.325490000000     0.941600000000     0.055440000000    -0.342459   
O378     O      0.353810000000     0.968720000000     0.583480000000    -0.511818   
O379     O      0.291550000000     0.985020000000     0.024730000000    -0.609628   
O380     O      0.350030000000     0.982670000000     0.012900000000    -0.471025   
O381     O      0.279720000000     0.525110000000     0.978640000000    -0.478187   
O382     O      0.356510000000     0.029670000000     0.548350000000    -0.623447   
O383     O      0.342050000000     0.522760000000     0.966550000000    -0.623066   
O384     O      0.297170000000     0.008580000000     0.554210000000    -0.477863   
O385     O      0.019690000000     0.073990000000     0.204250000000    -0.366848   
O386     O      0.061040000000     0.555140000000     0.180500000000    -0.36053    
O387     O      0.118430000000     0.143710000000     0.292170000000    -0.363401   
O388     O      0.598320000000     0.119040000000     0.325930000000    -0.357109   
O389     O      0.125380000000     0.123340000000     0.204540000000    -0.36697    
O390     O      0.610060000000     0.082530000000     0.178510000000    -0.355803   
O391     O      0.006860000000     0.092020000000     0.292780000000    -0.356941   
O392     O      0.040870000000     0.592420000000     0.327410000000    -0.355683   
O393     O      0.017090000000     0.125470000000     0.241300000000    -0.34283    
O394     O      0.983970000000     0.563430000000     0.247870000000    -0.511887   
O395     O      0.084220000000     0.155360000000     0.240820000000    -0.512647   
O396     O      0.656590000000     0.141790000000     0.245610000000    -0.32551    
O397     O      0.075250000000     0.094310000000     0.225000000000    -0.470937   
O398     O      0.068600000000     0.107170000000     0.276500000000    -0.608201   
O399     O      0.550670000000     0.504460000000     0.316560000000    -0.36157    
O400     O      0.068280000000     0.542170000000     0.342400000000    -0.361258   
O401     O      0.675960000000     0.528650000000     0.228650000000    -0.370363   
O402     O      0.641280000000     0.028220000000     0.194110000000    -0.360158   
O403     O      0.665950000000     0.551540000000     0.315230000000    -0.360042   
O404     O      0.625040000000     0.067270000000     0.340540000000    -0.358013   
O405     O      0.568870000000     0.478220000000     0.231280000000    -0.364143   
O406     O      0.089470000000     0.504030000000     0.196060000000    -0.354931   
O407     O      0.598980000000     0.469810000000     0.286390000000    -0.513971   
O408     O      0.027870000000     0.480100000000     0.272280000000    -0.326128   
O409     O      0.666690000000     0.498840000000     0.282550000000    -0.341215   
O410     O      0.700400000000     0.060290000000     0.269960000000    -0.510898   
O411     O      0.608890000000     0.529560000000     0.296530000000    -0.608345   
O412     O      0.615060000000     0.515860000000     0.245420000000    -0.470581   
O413     O      0.046570000000     0.549630000000     0.288890000000    -0.473724   
O414     O      0.636840000000     0.074130000000     0.231980000000    -0.624886   
O415     O      0.053740000000     0.535490000000     0.234190000000    -0.624033   
O416     O      0.630710000000     0.088390000000     0.286950000000    -0.476045   
O417     O      0.634690000000     0.238430000000     0.049640000000    -0.366339   
O418     O      0.590160000000     0.197730000000     0.484990000000    -0.358384   
O419     O      0.520400000000     0.341000000000     0.071710000000    -0.361831   
O420     O      0.042830000000     0.369350000000     0.039080000000    -0.357638   
O421     O      0.519850000000     0.248070000000     0.084680000000    -0.360871   
O422     O      0.037270000000     0.213440000000     0.060090000000    -0.359142   
O423     O      0.638090000000     0.331830000000     0.043290000000    -0.363651   
O424     O      0.643610000000     0.346990000000     0.486210000000    -0.351997   
O425     O      0.624580000000     0.288620000000     0.087070000000    -0.33915    
O426     O      0.655230000000     0.261280000000     0.437060000000    -0.511048   
O427     O      0.553610000000     0.298490000000     0.105540000000    -0.512069   
O428     O      0.985030000000     0.297250000000     0.085270000000    -0.327264   
O429     O      0.573680000000     0.261710000000     0.057760000000    -0.459428   
O430     O      0.576680000000     0.316150000000     0.051430000000    -0.607821   
O431     O      0.060770000000     0.338860000000     0.440140000000    -0.363086   
O432     O      0.585510000000     0.365010000000     0.471090000000    -0.359552   
O433     O      0.986970000000     0.261600000000     0.534030000000    -0.363562   
O434     O      0.017200000000     0.207210000000     0.004260000000    -0.357633   
O435     O      0.025680000000     0.348070000000     0.547870000000    -0.354867   
O436     O      0.026980000000     0.362620000000     0.983800000000    -0.35469    
O437     O      0.028210000000     0.250460000000     0.438870000000    -0.364336   
O438     O      0.530380000000     0.216230000000     0.469550000000    -0.35508    
O439     O      0.000840000000     0.308140000000     0.448890000000    -0.515644   
O440     O      0.559700000000     0.290670000000     0.408370000000    -0.327491   
O441     O      0.978920000000     0.320300000000     0.513910000000    -0.341622   
O442     O      0.953270000000     0.289300000000     0.001280000000    -0.515722   
O443     O      0.043000000000     0.323470000000     0.494290000000    -0.609202   
O444     O      0.024030000000     0.271290000000     0.493470000000    -0.469778   
O445     O      0.603060000000     0.307800000000     0.464750000000    -0.476906   
O446     O      0.014280000000     0.260830000000     0.031640000000    -0.62473    
O447     O      0.582810000000     0.252440000000     0.464310000000    -0.624706   
O448     O      0.017390000000     0.319100000000     0.024450000000    -0.477302   
O449     O      0.859900000000     0.075910000000     0.950700000000    -0.361986   
O450     O      0.880360000000     0.090050000000     0.482500000000    -0.35995    
O451     O      0.787080000000     0.084140000000     0.075840000000    -0.366978   
O452     O      0.746650000000     0.563220000000     0.057220000000    -0.357615   
O453     O      0.884470000000     0.086630000000     0.050910000000    -0.365824   
O454     O      0.913290000000     0.558040000000     0.023560000000    -0.356892   
O455     O      0.761210000000     0.082960000000     0.973510000000    -0.359065   
O456     O      0.721750000000     0.030460000000     0.491740000000    -0.358106   
O457     O      0.815270000000     0.114530000000     0.970990000000    -0.335768   
O458     O      0.789760000000     0.088280000000     0.432940000000    -0.5158     
O459     O      0.828520000000     0.119630000000     0.043650000000    -0.516693   
O460     O      0.847730000000     0.580040000000     0.097150000000    -0.331702   
O461     O      0.851930000000     0.070870000000     0.006540000000    -0.469742   
O462     O      0.793870000000     0.072650000000     0.018210000000    -0.613156   
O463     O      0.777990000000     0.476050000000     0.446260000000    -0.358643   
O464     O      0.743290000000     0.977940000000     0.480800000000    -0.356323   
O465     O      0.893050000000     0.485560000000     0.543830000000    -0.372428   
O466     O      0.912500000000     0.497040000000     0.029670000000    -0.358317   
O467     O      0.798590000000     0.453990000000     0.555180000000    -0.359616   
O468     O      0.746350000000     0.504610000000     0.064170000000    -0.357288   
O469     O      0.874730000000     0.505210000000     0.440900000000    -0.362492   
O470     O      0.902540000000     0.033990000000     0.468050000000    -0.356364   
O471     O      0.841290000000     0.451440000000     0.457120000000    -0.514531   
O472     O      0.822190000000     0.000750000000     0.413060000000    -0.329262   
O473     O      0.853300000000     0.438910000000     0.522750000000    -0.34097    
O474     O      0.844550000000     0.487120000000     0.104080000000    -0.511508   
O475     O      0.805500000000     0.477690000000     0.501120000000    -0.608711   
O476     O      0.860960000000     0.497320000000     0.496610000000    -0.470886   
O477     O      0.779790000000     0.025180000000     0.468970000000    -0.472463   
O478     O      0.864410000000     0.529880000000     0.051670000000    -0.624175   
O479     O      0.839000000000     0.046670000000     0.463890000000    -0.622759   
O480     O      0.801930000000     0.532010000000     0.064030000000    -0.477769   
O481     O      0.987540000000     0.033240000000     0.704840000000    -0.369091   
O482     O      0.024560000000     0.515210000000     0.677850000000    -0.3586     
O483     O      0.093280000000     0.071080000000     0.800650000000    -0.36462    
O484     O      0.570860000000     0.044820000000     0.831170000000    -0.356851   
O485     O      0.099900000000     0.064160000000     0.711180000000    -0.366628   
O486     O      0.587120000000     0.030030000000     0.680510000000    -0.355678   
O487     O      0.975770000000     0.037730000000     0.794400000000    -0.358456   
O488     O      0.007870000000     0.528320000000     0.828620000000    -0.357577   
O489     O      0.987400000000     0.074140000000     0.748820000000    -0.337801   
O490     O      0.947270000000     0.514320000000     0.746590000000    -0.514207   
O491     O      0.062140000000     0.095520000000     0.751710000000    -0.514939   
O492     O      0.634730000000     0.073790000000     0.756540000000    -0.323905   
O493     O      0.043830000000     0.039650000000     0.727430000000    -0.469996   
O494     O      0.038390000000     0.044670000000     0.779830000000    -0.61131    
O495     O      0.516840000000     0.435590000000     0.805590000000    -0.36462    
O496     O      0.025740000000     0.471250000000     0.835480000000    -0.358273   
O497     O      0.638730000000     0.464040000000     0.722390000000    -0.368832   
O498     O      0.605730000000     0.971220000000     0.688030000000    -0.359542   
O499     O      0.628310000000     0.472790000000     0.812180000000    -0.35731    
O500     O      0.589590000000     0.988780000000     0.838550000000    -0.358043   
O501     O      0.526520000000     0.426100000000     0.715820000000    -0.362465   
O502     O      0.042980000000     0.455530000000     0.684300000000    -0.357283   
O503     O      0.552690000000     0.404110000000     0.765990000000    -0.512045   
O504     O      0.976980000000     0.428680000000     0.758290000000    -0.330479   
O505     O      0.625510000000     0.427520000000     0.770910000000    -0.342347   
O506     O      0.666800000000     0.985550000000     0.768710000000    -0.512692   
O507     O      0.570520000000     0.461440000000     0.788810000000    -0.610054   
O508     O      0.576610000000     0.455770000000     0.736400000000    -0.469722   
O509     O      0.006150000000     0.489000000000     0.784200000000    -0.477005   
O510     O      0.606920000000     0.011610000000     0.732330000000    -0.624342   
O511     O      0.012300000000     0.483710000000     0.727550000000    -0.623793   
O512     O      0.600730000000     0.017440000000     0.788760000000    -0.475329   
O513     O      0.630940000000     0.219470000000     0.466640000000    -0.371952   
O514     O      0.596680000000     0.207380000000     0.042540000000    -0.356611   
O515     O      0.624650000000     0.317700000000     0.575000000000    -0.359848   
O516     O      0.123970000000     0.351680000000     0.544250000000    -0.357443   
O517     O      0.599840000000     0.226510000000     0.571170000000    -0.360114   
O518     O      0.070010000000     0.202520000000     0.542180000000    -0.356636   
O519     O      0.663860000000     0.307270000000     0.469130000000    -0.364783   
O520     O      0.604640000000     0.363200000000     0.026310000000    -0.359609   
O521     O      0.676840000000     0.253090000000     0.501580000000    -0.341551   
O522     O      0.670110000000     0.282600000000     0.032600000000    -0.513379   
O523     O      0.656450000000     0.262020000000     0.564270000000    -0.512314   
O524     O      0.092280000000     0.275700000000     0.605320000000    -0.328003   
O525     O      0.612960000000     0.243810000000     0.518400000000    -0.462085   
O526     O      0.631660000000     0.295980000000     0.519240000000    -0.607713   
O527     O      0.101360000000     0.321700000000     0.942840000000    -0.363572   
O528     O      0.588800000000     0.357710000000     0.970520000000    -0.357314   
O529     O      0.985120000000     0.239100000000     0.986250000000    -0.370967   
O530     O      0.010220000000     0.220990000000     0.523070000000    -0.359727   
O531     O      0.990390000000     0.330890000000     0.974260000000    -0.360001   
O532     O      0.067100000000     0.369200000000     0.530010000000    -0.357364   
O533     O      0.098160000000     0.229090000000     0.955060000000    -0.36785    
O534     O      0.578340000000     0.201540000000     0.987530000000    -0.35973    
O535     O      0.067460000000     0.272730000000     0.922470000000    -0.514217   
O536     O      0.640420000000     0.273040000000     0.945840000000    -0.327683   
O537     O      0.991980000000     0.280170000000     0.943910000000    -0.337136   
O538     O      0.999960000000     0.301820000000     0.576000000000    -0.515382   
O539     O      0.048320000000     0.308100000000     0.971040000000    -0.614087   
O540     O      0.045130000000     0.253960000000     0.977630000000    -0.470283   
O541     O      0.609520000000     0.310400000000     0.998060000000    -0.476026   
O542     O      0.051460000000     0.260040000000     0.548200000000    -0.62323    
O543     O      0.605560000000     0.252250000000     0.004690000000    -0.624044   
O544     O      0.071910000000     0.315600000000     0.548720000000    -0.474662   
O545     O      0.834120000000     0.107600000000     0.471970000000    -0.364153   
O546     O      0.899030000000     0.051310000000     0.968490000000    -0.357629   
O547     O      0.760820000000     0.048930000000     0.577080000000    -0.363882   
O548     O      0.731370000000     0.522960000000     0.548470000000    -0.35861    
O549     O      0.852870000000     0.086490000000     0.566930000000    -0.363795   
O550     O      0.890080000000     0.578950000000     0.535610000000    -0.358783   
O551     O      0.742990000000     0.063130000000     0.464610000000    -0.354263   
O552     O      0.731690000000     0.058540000000     0.002570000000    -0.355992   
O553     O      0.769640000000     0.113660000000     0.492010000000    -0.34535    
O554     O      0.799690000000     0.064530000000     0.927270000000    -0.516621   
O555     O      0.788180000000     0.103480000000     0.559790000000    -0.514787   
O556     O      0.816740000000     0.556120000000     0.603240000000    -0.327696   
O557     O      0.828490000000     0.078420000000     0.515410000000    -0.469094   
O558     O      0.772960000000     0.058890000000     0.519960000000    -0.609703   
O559     O      0.758650000000     0.471770000000     0.977430000000    -0.367014   
O560     O      0.730570000000     0.998780000000     0.006010000000    -0.359323   
O561     O      0.883950000000     0.475940000000     0.061810000000    -0.371251   
O562     O      0.912800000000     0.522580000000     0.521400000000    -0.358916   
O563     O      0.786210000000     0.482890000000     0.084080000000    -0.36003    
O564     O      0.753340000000     0.467940000000     0.538100000000    -0.35438    
O565     O      0.857150000000     0.468870000000     0.957140000000    -0.363845   
O566     O      0.897470000000     0.993110000000     0.973390000000    -0.353341   
O567     O      0.812650000000     0.436240000000     0.990450000000    -0.512071   
O568     O      0.799130000000     0.973740000000     0.934340000000    -0.329211   
O569     O      0.826340000000     0.441020000000     0.055380000000    -0.342398   
O570     O      0.851020000000     0.470190000000     0.583320000000    -0.511843   
O571     O      0.792360000000     0.484790000000     0.025020000000    -0.609822   
O572     O      0.850860000000     0.482440000000     0.013320000000    -0.471057   
O573     O      0.779640000000     0.025490000000     0.979580000000    -0.478029   
O574     O      0.854180000000     0.530880000000     0.547820000000    -0.623297   
O575     O      0.842060000000     0.023450000000     0.967780000000    -0.622892   
O576     O      0.794830000000     0.509650000000     0.553030000000    -0.478137   
O577     O      0.021470000000     0.573850000000     0.203440000000    -0.367024   
O578     O      0.059260000000     0.055440000000     0.181180000000    -0.360453   
O579     O      0.120170000000     0.643080000000     0.291670000000    -0.363194   
O580     O      0.599450000000     0.618640000000     0.325320000000    -0.357073   
O581     O      0.127390000000     0.622640000000     0.204070000000    -0.366925   
O582     O      0.611730000000     0.581930000000     0.177970000000    -0.355886   
O583     O      0.008280000000     0.591750000000     0.291950000000    -0.356716   
O584     O      0.039590000000     0.092780000000     0.328130000000    -0.355755   
O585     O      0.018930000000     0.625290000000     0.240570000000    -0.342836   
O586     O      0.982460000000     0.063470000000     0.248850000000    -0.511922   
O587     O      0.086250000000     0.654860000000     0.240190000000    -0.512138   
O588     O      0.658110000000     0.641200000000     0.245150000000    -0.325482   
O589     O      0.077010000000     0.593840000000     0.224390000000    -0.471074   
O590     O      0.070210000000     0.606770000000     0.275850000000    -0.608474   
O591     O      0.549680000000     0.004790000000     0.317190000000    -0.361489   
O592     O      0.067230000000     0.042560000000     0.343020000000    -0.361107   
O593     O      0.674620000000     0.029410000000     0.228920000000    -0.370477   
O594     O      0.642730000000     0.527460000000     0.193760000000    -0.360217   
O595     O      0.664830000000     0.051960000000     0.315600000000    -0.360002   
O596     O      0.626110000000     0.566970000000     0.340020000000    -0.358161   
O597     O      0.567530000000     0.978710000000     0.231810000000    -0.363995   
O598     O      0.088140000000     0.004560000000     0.196610000000    -0.355116   
O599     O      0.597960000000     0.970270000000     0.286790000000    -0.513691   
O600     O      0.026900000000     0.980320000000     0.273020000000    -0.326126   
O601     O      0.665540000000     0.999350000000     0.282740000000    -0.341105   
O602     O      0.701680000000     0.559680000000     0.269630000000    -0.510821   
O603     O      0.607760000000     0.030010000000     0.297020000000    -0.608313   
O604     O      0.613760000000     0.016380000000     0.245870000000    -0.470624   
O605     O      0.045310000000     0.049930000000     0.289590000000    -0.473824   
O606     O      0.638280000000     0.573550000000     0.231520000000    -0.625044   
O607     O      0.052340000000     0.035850000000     0.234860000000    -0.624213   
O608     O      0.631970000000     0.587900000000     0.286460000000    -0.476022   
O609     O      0.635450000000     0.738440000000     0.049370000000    -0.366248   
O610     O      0.590580000000     0.697730000000     0.484570000000    -0.358316   
O611     O      0.520650000000     0.840350000000     0.072160000000    -0.361692   
O612     O      0.042970000000     0.868980000000     0.039540000000    -0.357729   
O613     O      0.520790000000     0.747390000000     0.084920000000    -0.360724   
O614     O      0.038580000000     0.712990000000     0.060240000000    -0.359413   
O615     O      0.638300000000     0.831850000000     0.043190000000    -0.363655   
O616     O      0.643980000000     0.847000000000     0.486390000000    -0.351887   
O617     O      0.625290000000     0.788490000000     0.086940000000    -0.339126   
O618     O      0.656090000000     0.761380000000     0.437200000000    -0.510749   
O619     O      0.554380000000     0.797960000000     0.105740000000    -0.511717   
O620     O      0.986040000000     0.796430000000     0.085980000000    -0.327334   
O621     O      0.574380000000     0.761370000000     0.057790000000    -0.459364   
O622     O      0.577020000000     0.815850000000     0.051580000000    -0.607937   
O623     O      0.062130000000     0.838860000000     0.439550000000    -0.363079   
O624     O      0.586010000000     0.865030000000     0.470890000000    -0.35968    
O625     O      0.987030000000     0.761670000000     0.532820000000    -0.363674   
O626     O      0.018100000000     0.706770000000     0.004550000000    -0.357593   
O627     O      0.025700000000     0.848080000000     0.546900000000    -0.35503    
O628     O      0.026650000000     0.862290000000     0.984360000000    -0.354857   
O629     O      0.029380000000     0.750520000000     0.437910000000    -0.36423    
O630     O      0.530980000000     0.716230000000     0.468710000000    -0.355127   
O631     O      0.002010000000     0.808260000000     0.447720000000    -0.515469   
O632     O      0.560800000000     0.790800000000     0.407870000000    -0.327489   
O633     O      0.979320000000     0.820330000000     0.512450000000    -0.341789   
O634     O      0.953590000000     0.788450000000     0.002100000000    -0.515593   
O635     O      0.043640000000     0.823460000000     0.493520000000    -0.609263   
O636     O      0.024570000000     0.771320000000     0.492490000000    -0.469738   
O637     O      0.603630000000     0.807830000000     0.464590000000    -0.477108   
O638     O      0.015070000000     0.760320000000     0.032060000000    -0.624734   
O639     O      0.583400000000     0.752470000000     0.463920000000    -0.624662   
O640     O      0.017730000000     0.818620000000     0.024970000000    -0.477188   
O641     O      0.860620000000     0.575640000000     0.950520000000    -0.361899   
O642     O      0.880380000000     0.589850000000     0.482010000000    -0.359763   
O643     O      0.787990000000     0.583750000000     0.075830000000    -0.366858   
O644     O      0.745850000000     0.063420000000     0.057240000000    -0.35781    
O645     O      0.885340000000     0.586070000000     0.050730000000    -0.365471   
O646     O      0.912580000000     0.058600000000     0.023890000000    -0.357027   
O647     O      0.761940000000     0.582850000000     0.973340000000    -0.358963   
O648     O      0.721850000000     0.530090000000     0.491250000000    -0.358286   
O649     O      0.816080000000     0.614360000000     0.971040000000    -0.33616    
O650     O      0.789660000000     0.588100000000     0.432540000000    -0.51584    
O651     O      0.829450000000     0.619250000000     0.043600000000    -0.516458   
O652     O      0.846790000000     0.080550000000     0.097320000000    -0.331872   
O653     O      0.852690000000     0.570500000000     0.006360000000    -0.469741   
O654     O      0.794640000000     0.572440000000     0.018090000000    -0.613014   
O655     O      0.777780000000     0.976420000000     0.446810000000    -0.358444   
O656     O      0.743510000000     0.477510000000     0.480250000000    -0.35647    
O657     O      0.892870000000     0.985880000000     0.544510000000    -0.372241   
O658     O      0.911940000000     0.997540000000     0.029990000000    -0.358477   
O659     O      0.798360000000     0.954410000000     0.555830000000    -0.359585   
O660     O      0.745750000000     0.004790000000     0.064380000000    -0.357404   
O661     O      0.874660000000     0.005190000000     0.441600000000    -0.362838   
O662     O      0.902610000000     0.533900000000     0.467460000000    -0.356287   
O663     O      0.840940000000     0.951580000000     0.457840000000    -0.514752   
O664     O      0.822150000000     0.500660000000     0.412470000000    -0.329214   
O665     O      0.853090000000     0.939220000000     0.523460000000    -0.341017   
O666     O      0.844000000000     0.987710000000     0.104410000000    -0.511515   
O667     O      0.805320000000     0.978000000000     0.501750000000    -0.608563   
O668     O      0.860800000000     0.997560000000     0.497220000000    -0.470822   
O669     O      0.779880000000     0.524900000000     0.468440000000    -0.472419   
O670     O      0.863740000000     0.030370000000     0.051940000000    -0.624241   
O671     O      0.839070000000     0.546470000000     0.463390000000    -0.622651   
O672     O      0.801240000000     0.032340000000     0.064230000000    -0.477885   
O673     O      0.987310000000     0.532690000000     0.704520000000    -0.369064   
O674     O      0.024720000000     0.015650000000     0.678160000000    -0.358468   
O675     O      0.092930000000     0.571530000000     0.800010000000    -0.364287   
O676     O      0.570850000000     0.545200000000     0.830660000000    -0.356993   
O677     O      0.099530000000     0.564210000000     0.710580000000    -0.366636   
O678     O      0.587120000000     0.529900000000     0.680040000000    -0.355877   
O679     O      0.975670000000     0.537470000000     0.794060000000    -0.358518   
O680     O      0.007880000000     0.028290000000     0.828950000000    -0.357647   
O681     O      0.987060000000     0.573790000000     0.748340000000    -0.33801    
O682     O      0.947290000000     0.014870000000     0.746800000000    -0.514209   
O683     O      0.061650000000     0.595560000000     0.750990000000    -0.514662   
O684     O      0.634540000000     0.574170000000     0.755910000000    -0.32378    
O685     O      0.043630000000     0.539490000000     0.726990000000    -0.470083   
O686     O      0.038250000000     0.544700000000     0.779380000000    -0.611234   
O687     O      0.516260000000     0.935570000000     0.805690000000    -0.364851   
O688     O      0.025280000000     0.971080000000     0.835610000000    -0.358443   
O689     O      0.638450000000     0.963950000000     0.722660000000    -0.369182   
O690     O      0.605940000000     0.471060000000     0.687760000000    -0.359491   
O691     O      0.627930000000     0.972300000000     0.812480000000    -0.357184   
O692     O      0.589930000000     0.489230000000     0.838230000000    -0.358078   
O693     O      0.526000000000     0.926350000000     0.715890000000    -0.362131   
O694     O      0.042810000000     0.955850000000     0.684410000000    -0.35737    
O695     O      0.551880000000     0.904040000000     0.766010000000    -0.512074   
O696     O      0.976440000000     0.929090000000     0.758170000000    -0.330618   
O697     O      0.624760000000     0.927090000000     0.770990000000    -0.34266    
O698     O      0.667080000000     0.486250000000     0.768280000000    -0.513084   
O699     O      0.570070000000     0.961230000000     0.789040000000    -0.609933   
O700     O      0.576190000000     0.955720000000     0.736600000000    -0.469724   
O701     O      0.005950000000     0.989110000000     0.784390000000    -0.476988   
O702     O      0.607040000000     0.511770000000     0.731910000000    -0.624239   
O703     O      0.012170000000     0.984020000000     0.727720000000    -0.623722   
O704     O      0.600870000000     0.517790000000     0.788330000000    -0.475311   
O705     O      0.631500000000     0.719500000000     0.466500000000    -0.371804   
O706     O      0.597580000000     0.707220000000     0.042360000000    -0.356657   
O707     O      0.624220000000     0.817570000000     0.575010000000    -0.359737   
O708     O      0.124040000000     0.851510000000     0.544280000000    -0.357363   
O709     O      0.599520000000     0.726370000000     0.570850000000    -0.360047   
O710     O      0.069810000000     0.702430000000     0.541600000000    -0.356497   
O711     O      0.664400000000     0.807300000000     0.469410000000    -0.364683   
O712     O      0.604580000000     0.863120000000     0.026440000000    -0.359511   
O713     O      0.677080000000     0.753050000000     0.501860000000    -0.341599   
O714     O      0.670530000000     0.782800000000     0.032230000000    -0.513486   
O715     O      0.656160000000     0.761920000000     0.564420000000    -0.512879   
O716     O      0.091470000000     0.775540000000     0.605000000000    -0.327955   
O717     O      0.613070000000     0.743760000000     0.518210000000    -0.462101   
O718     O      0.631750000000     0.795930000000     0.519260000000    -0.607383   
O719     O      0.101010000000     0.821830000000     0.942810000000    -0.363523   
O720     O      0.588430000000     0.857680000000     0.970710000000    -0.357366   
O721     O      0.985640000000     0.738530000000     0.986860000000    -0.371098   
O722     O      0.010300000000     0.721030000000     0.521960000000    -0.35955    
O723     O      0.990120000000     0.830400000000     0.975130000000    -0.359974   
O724     O      0.067400000000     0.869140000000     0.529480000000    -0.357228   
O725     O      0.098580000000     0.729210000000     0.954890000000    -0.367804   
O726     O      0.579010000000     0.701420000000     0.987390000000    -0.359911   
O727     O      0.067170000000     0.772720000000     0.922590000000    -0.514157   
O728     O      0.640370000000     0.773340000000     0.945570000000    -0.327643   
O729     O      0.992010000000     0.779770000000     0.944490000000    -0.337285   
O730     O      0.999560000000     0.801920000000     0.574800000000    -0.515301   
O731     O      0.048270000000     0.807910000000     0.971320000000    -0.613997   
O732     O      0.045500000000     0.753730000000     0.977830000000    -0.470311   
O733     O      0.609590000000     0.810410000000     0.998050000000    -0.475881   
O734     O      0.051320000000     0.759990000000     0.547480000000    -0.623373   
O735     O      0.606010000000     0.752220000000     0.004560000000    -0.624128   
O736     O      0.071880000000     0.815520000000     0.548230000000    -0.474613   
O737     O      0.834120000000     0.607320000000     0.471390000000    -0.3644     
O738     O      0.899660000000     0.550820000000     0.968190000000    -0.357642   
O739     O      0.760920000000     0.548500000000     0.576580000000    -0.3637     
O740     O      0.731230000000     0.023430000000     0.548970000000    -0.358842   
O741     O      0.852930000000     0.586110000000     0.566480000000    -0.363819   
O742     O      0.890010000000     0.079240000000     0.536070000000    -0.358721   
O743     O      0.743040000000     0.562830000000     0.464180000000    -0.354395   
O744     O      0.732400000000     0.558520000000     0.002460000000    -0.356067   
O745     O      0.769720000000     0.613340000000     0.491740000000    -0.345529   
O746     O      0.800400000000     0.564530000000     0.927120000000    -0.5169     
O747     O      0.788250000000     0.603050000000     0.559390000000    -0.514311   
O748     O      0.816620000000     0.056640000000     0.603730000000    -0.327699   
O749     O      0.828560000000     0.578110000000     0.514960000000    -0.469151   
O750     O      0.773040000000     0.558510000000     0.519490000000    -0.609722   
O751     O      0.758300000000     0.971780000000     0.977700000000    -0.366952   
O752     O      0.731060000000     0.498790000000     0.005830000000    -0.359409   
O753     O      0.883430000000     0.976440000000     0.062150000000    -0.371297   
O754     O      0.912650000000     0.022850000000     0.522030000000    -0.358917   
O755     O      0.785670000000     0.983240000000     0.084380000000    -0.359885   
O756     O      0.753140000000     0.968350000000     0.538670000000    -0.354355   
O757     O      0.856840000000     0.969140000000     0.957520000000    -0.363651   
O758     O      0.897920000000     0.492570000000     0.973100000000    -0.353353   
O759     O      0.812410000000     0.936450000000     0.990870000000    -0.512363   
O760     O      0.799430000000     0.473700000000     0.934030000000    -0.329114   
O761     O      0.825930000000     0.941420000000     0.055840000000    -0.342427   
O762     O      0.850770000000     0.970600000000     0.583990000000    -0.511904   
O763     O      0.791890000000     0.985010000000     0.025310000000    -0.609626   
O764     O      0.850420000000     0.982820000000     0.013670000000    -0.470915   
O765     O      0.780210000000     0.525400000000     0.979390000000    -0.478148   
O766     O      0.854050000000     0.031230000000     0.548370000000    -0.623507   
O767     O      0.842600000000     0.523190000000     0.967520000000    -0.62309    
O768     O      0.794670000000     0.010070000000     0.553590000000    -0.478241   
Zr1      Zr     0.532620000000     0.576970000000     0.249730000000     1.29145    
Zr2      Zr     0.113970000000     0.115330000000     0.251760000000     1.29567    
Zr3      Zr     0.569710000000     0.508420000000     0.270680000000     1.29415    
Zr4      Zr     0.151250000000     0.046480000000     0.271350000000     1.29409    
Zr5      Zr     0.100270000000     0.549770000000     0.213060000000     1.27333    
Zr6      Zr     0.584480000000     0.073960000000     0.308590000000     1.26437    
Zr7      Zr     0.129170000000     0.268290000000     0.481880000000     1.29314    
Zr8      Zr     0.531090000000     0.292140000000     0.062160000000     1.29305    
Zr9      Zr     0.051300000000     0.292450000000     0.457460000000     1.29418    
Zr10     Zr     0.505530000000     0.284740000000     0.988960000000     1.29854    
Zr11     Zr     0.561180000000     0.234480000000     0.505280000000     1.27545    
Zr12     Zr     0.064940000000     0.336940000000     0.008040000000     1.27105    
Zr13     Zr     0.296660000000     0.070860000000     0.479180000000     1.28789    
Zr14     Zr     0.333100000000     0.570350000000     0.050000000000     1.29564    
Zr15     Zr     0.325410000000     0.998120000000     0.461680000000     1.29101    
Zr16     Zr     0.331380000000     0.491220000000     0.056770000000     1.29279    
Zr17     Zr     0.371100000000     0.545160000000     0.503640000000     1.27222    
Zr18     Zr     0.266570000000     0.029770000000     0.025880000000     1.26621    
Zr19     Zr     0.501730000000     0.523270000000     0.750210000000     1.29402    
Zr20     Zr     0.085100000000     0.050730000000     0.756540000000     1.29645    
Zr21     Zr     0.529910000000     0.448810000000     0.759680000000     1.2939     
Zr22     Zr     0.111080000000     0.975530000000     0.765550000000     1.29277    
Zr23     Zr     0.060810000000     0.495630000000     0.708590000000     1.27006    
Zr24     Zr     0.552110000000     0.004930000000     0.807210000000     1.26937    
Zr25     Zr     0.118350000000     0.286350000000     0.038260000000     1.28916    
Zr26     Zr     0.604980000000     0.274570000000     0.555600000000     1.2921     
Zr27     Zr     0.090550000000     0.278030000000     0.965760000000     1.29615    
Zr28     Zr     0.526670000000     0.298920000000     0.532470000000     1.28882    
Zr29     Zr     0.557880000000     0.233560000000     0.019810000000     1.27209    
Zr30     Zr     0.094610000000     0.332870000000     0.507880000000     1.26919    
Zr31     Zr     0.312320000000     0.064060000000     0.972850000000     1.2922     
Zr32     Zr     0.312130000000     0.555740000000     0.555950000000     1.29421    
Zr33     Zr     0.310750000000     0.984730000000     0.979840000000     1.2932     
Zr34     Zr     0.340760000000     0.482880000000     0.538450000000     1.29386    
Zr35     Zr     0.377110000000     0.525340000000     0.003670000000     1.27167    
Zr36     Zr     0.266460000000     0.008550000000     0.514160000000     1.2692     
Zr37     Zr     0.531240000000     0.077370000000     0.250490000000     1.2914     
Zr38     Zr     0.115720000000     0.614700000000     0.251250000000     1.29574    
Zr39     Zr     0.568530000000     0.008850000000     0.271260000000     1.29404    
Zr40     Zr     0.152570000000     0.545710000000     0.271000000000     1.29395    
Zr41     Zr     0.098690000000     0.050350000000     0.213590000000     1.27339    
Zr42     Zr     0.585640000000     0.573560000000     0.307980000000     1.26437    
Zr43     Zr     0.129840000000     0.768130000000     0.481910000000     1.29306    
Zr44     Zr     0.531640000000     0.791570000000     0.062460000000     1.29317    
Zr45     Zr     0.052320000000     0.792460000000     0.456760000000     1.29426    
Zr46     Zr     0.505690000000     0.784270000000     0.989360000000     1.29863    
Zr47     Zr     0.561410000000     0.734440000000     0.504710000000     1.27543    
Zr48     Zr     0.065010000000     0.836770000000     0.008270000000     1.27094    
Zr49     Zr     0.296760000000     0.570410000000     0.478780000000     1.28801    
Zr50     Zr     0.332340000000     0.070740000000     0.050140000000     1.29578    
Zr51     Zr     0.325630000000     0.497750000000     0.461120000000     1.2908     
Zr52     Zr     0.330840000000     0.991620000000     0.057060000000     1.29302    
Zr53     Zr     0.370920000000     0.045530000000     0.504160000000     1.27225    
Zr54     Zr     0.267190000000     0.529600000000     0.025740000000     1.26619    
Zr55     Zr     0.501650000000     0.023510000000     0.750590000000     1.29379    
Zr56     Zr     0.084880000000     0.550900000000     0.756000000000     1.29644    
Zr57     Zr     0.529420000000     0.948890000000     0.759830000000     1.29388    
Zr58     Zr     0.111330000000     0.475890000000     0.765260000000     1.2929     
Zr59     Zr     0.060790000000     0.995770000000     0.708890000000     1.27018    
Zr60     Zr     0.552340000000     0.505120000000     0.806860000000     1.26931    
Zr61     Zr     0.119010000000     0.786420000000     0.038030000000     1.28913    
Zr62     Zr     0.604760000000     0.774460000000     0.555390000000     1.29213    
Zr63     Zr     0.090650000000     0.778070000000     0.965710000000     1.29648    
Zr64     Zr     0.526650000000     0.798830000000     0.531750000000     1.28888    
Zr65     Zr     0.558520000000     0.733250000000     0.019830000000     1.2719     
Zr66     Zr     0.095110000000     0.832760000000     0.507610000000     1.2691     
Zr67     Zr     0.312980000000     0.563880000000     0.972720000000     1.29212    
Zr68     Zr     0.311910000000     0.056290000000     0.556390000000     1.29395    
Zr69     Zr     0.311150000000     0.484540000000     0.979560000000     1.29288    
Zr70     Zr     0.340420000000     0.983360000000     0.539040000000     1.2938     
Zr71     Zr     0.376540000000     0.025760000000     0.003940000000     1.27137    
Zr72     Zr     0.266710000000     0.508000000000     0.513690000000     1.26938    
Zr73     Zr     0.035360000000     0.578580000000     0.251140000000     1.29142    
Zr74     Zr     0.611370000000     0.113870000000     0.249470000000     1.29573    
Zr75     Zr     0.072020000000     0.509700000000     0.271690000000     1.29426    
Zr76     Zr     0.648830000000     0.045230000000     0.269430000000     1.29467    
Zr77     Zr     0.597270000000     0.547980000000     0.211440000000     1.27308    
Zr78     Zr     0.086530000000     0.074860000000     0.310320000000     1.26454    
Zr79     Zr     0.630910000000     0.268130000000     0.479560000000     1.29317    
Zr80     Zr     0.033570000000     0.293600000000     0.063230000000     1.29307    
Zr81     Zr     0.552520000000     0.292380000000     0.456540000000     1.2941     
Zr82     Zr     0.005890000000     0.285420000000     0.990710000000     1.29864    
Zr83     Zr     0.058880000000     0.234930000000     0.506750000000     1.27531    
Zr84     Zr     0.564020000000     0.336080000000     0.008140000000     1.27111    
Zr85     Zr     0.795340000000     0.071680000000     0.478050000000     1.28811    
Zr86     Zr     0.833210000000     0.570210000000     0.051250000000     1.29542    
Zr87     Zr     0.824600000000     0.998860000000     0.461550000000     1.29075    
Zr88     Zr     0.831550000000     0.491040000000     0.057500000000     1.29277    
Zr89     Zr     0.869300000000     0.546510000000     0.503740000000     1.27218    
Zr90     Zr     0.766830000000     0.029720000000     0.026640000000     1.26647    
Zr91     Zr     0.999810000000     0.525010000000     0.751580000000     1.29444    
Zr92     Zr     0.586270000000     0.050600000000     0.755350000000     1.29637    
Zr93     Zr     0.026410000000     0.449980000000     0.760410000000     1.29386    
Zr94     Zr     0.613870000000     0.975990000000     0.765030000000     1.29315    
Zr95     Zr     0.563610000000     0.494690000000     0.707700000000     1.27009    
Zr96     Zr     0.050190000000     0.005280000000     0.808180000000     1.26931    
Zr97     Zr     0.616560000000     0.285180000000     0.039070000000     1.28923    
Zr98     Zr     0.101780000000     0.275360000000     0.557440000000     1.29243    
Zr99     Zr     0.590870000000     0.277630000000     0.965880000000     1.29632    
Zr100    Zr     0.023990000000     0.299660000000     0.532920000000     1.28912    
Zr101    Zr     0.059100000000     0.234560000000     0.020860000000     1.27211    
Zr102    Zr     0.596740000000     0.332440000000     0.506570000000     1.26918    
Zr103    Zr     0.812750000000     0.064420000000     0.973980000000     1.29203    
Zr104    Zr     0.809370000000     0.557430000000     0.555080000000     1.29409    
Zr105    Zr     0.811270000000     0.985040000000     0.980480000000     1.29306    
Zr106    Zr     0.838440000000     0.484460000000     0.538590000000     1.29372    
Zr107    Zr     0.877470000000     0.525560000000     0.004780000000     1.27181    
Zr108    Zr     0.764680000000     0.009620000000     0.513120000000     1.26905    
Zr109    Zr     0.033800000000     0.078850000000     0.251890000000     1.29133    
Zr110    Zr     0.612820000000     0.613350000000     0.248900000000     1.29571    
Zr111    Zr     0.070890000000     0.010120000000     0.272280000000     1.2939     
Zr112    Zr     0.650090000000     0.544690000000     0.269040000000     1.29475    
Zr113    Zr     0.595800000000     0.048520000000     0.211980000000     1.27337    
Zr114    Zr     0.087830000000     0.574400000000     0.309740000000     1.26449    
Zr115    Zr     0.631360000000     0.768140000000     0.479530000000     1.29292    
Zr116    Zr     0.034410000000     0.793130000000     0.063590000000     1.29317    
Zr117    Zr     0.553180000000     0.792410000000     0.455990000000     1.29416    
Zr118    Zr     0.006160000000     0.784950000000     0.991240000000     1.29853    
Zr119    Zr     0.059180000000     0.734890000000     0.506090000000     1.27537    
Zr120    Zr     0.564000000000     0.835840000000     0.008410000000     1.27086    
Zr121    Zr     0.795380000000     0.571400000000     0.477600000000     1.28818    
Zr122    Zr     0.832400000000     0.070610000000     0.051410000000     1.29561    
Zr123    Zr     0.824740000000     0.498660000000     0.460950000000     1.29028    
Zr124    Zr     0.831010000000     0.991450000000     0.057820000000     1.29315    
Zr125    Zr     0.869210000000     0.046760000000     0.504260000000     1.27226    
Zr126    Zr     0.767470000000     0.529580000000     0.026470000000     1.2665     
Zr127    Zr     0.999880000000     0.025280000000     0.751900000000     1.2941     
Zr128    Zr     0.586200000000     0.550750000000     0.754810000000     1.29627    
Zr129    Zr     0.026010000000     0.950080000000     0.760470000000     1.29367    
Zr130    Zr     0.614210000000     0.476310000000     0.764730000000     1.29321    
Zr131    Zr     0.563420000000     0.994810000000     0.708040000000     1.27034    
Zr132    Zr     0.050330000000     0.505500000000     0.807880000000     1.26945    
Zr133    Zr     0.617010000000     0.785120000000     0.038970000000     1.28938    
Zr134    Zr     0.101550000000     0.775210000000     0.557210000000     1.29234    
Zr135    Zr     0.590940000000     0.777620000000     0.965870000000     1.29618    
Zr136    Zr     0.024120000000     0.799670000000     0.531960000000     1.28902    
Zr137    Zr     0.059960000000     0.734320000000     0.020930000000     1.27218    
Zr138    Zr     0.596940000000     0.832400000000     0.506390000000     1.26917    
Zr139    Zr     0.813450000000     0.564240000000     0.973830000000     1.29197    
Zr140    Zr     0.809260000000     0.057840000000     0.555570000000     1.29411    
Zr141    Zr     0.811680000000     0.484860000000     0.980180000000     1.29325    
Zr142    Zr     0.838250000000     0.984810000000     0.539220000000     1.29381    
Zr143    Zr     0.876880000000     0.026010000000     0.005080000000     1.27152    
Zr144    Zr     0.764820000000     0.509240000000     0.512570000000     1.26906    


