data_structure

_audit_creation_method RASPA-1.0
_audit_creation_date 2023-5-19
_audit_author_name 'Poobodin Mano'

_cell_length_a    55.9588
_cell_length_b    37.8784
_cell_length_c    35.7548
_cell_angle_alpha 90.0031
_cell_angle_beta  90.0033
_cell_angle_gamma 89.9695
_cell_volume      75786.9

_symmetry_cell_setting          triclinic
_symmetry_space_group_name_Hall 'P 1'
_symmetry_space_group_name_H-M  'P 1'
_symmetry_Int_Tables_number     1

_symmetry_equiv_pos_as_xyz 'x,y,z'

loop_
_atom_site_label
_atom_site_type_symbol
_atom_site_fract_x
_atom_site_fract_y
_atom_site_fract_z
_atom_site_charge
C1       C      0.394160000000     0.490360000000     0.425800000000     0.3943     
C2       C      0.018410000000     0.492070000000     0.055480000000     0.393631   
C3       C      0.394140000000     0.490380000000     0.053570000000     0.395343   
C4       C      0.018440000000     0.492070000000     0.423970000000     0.394401   
C5       C      0.018420000000     0.115050000000     0.423920000000     0.392997   
C6       C      0.394160000000     0.116740000000     0.053620000000     0.394561   
C7       C      0.018440000000     0.115070000000     0.055430000000     0.394162   
C8       C      0.394140000000     0.116760000000     0.425840000000     0.395584   
C9       C      0.268350000000     0.366680000000     0.175680000000     0.394212   
C10      C      0.144090000000     0.365060000000     0.305430000000     0.394334   
C11      C      0.268400000000     0.366600000000     0.303730000000     0.395135   
C12      C      0.144070000000     0.364970000000     0.173900000000     0.394817   
C13      C      0.144100000000     0.242010000000     0.173990000000     0.394132   
C14      C      0.268370000000     0.240430000000     0.303600000000     0.395482   
C15      C      0.144110000000     0.242030000000     0.305470000000     0.393747   
C16      C      0.268370000000     0.240320000000     0.175890000000     0.395748   
C17      C      0.032540000000     0.160100000000     0.101370000000    -0.0239186  
C18      C      0.130010000000     0.196980000000     0.128040000000    -0.0239484  
C19      C      0.100710000000     0.230290000000     0.164100000000    -0.0236217  
C20      C      0.088730000000     0.204330000000     0.139390000000     0.0129807  
C21      C      0.105370000000     0.185380000000     0.118900000000     0.0131154  
C22      C      0.098380000000     0.159060000000     0.093630000000    -0.0664725  
C23      C      0.061830000000     0.126790000000     0.065310000000    -0.0235916  
C24      C      0.064150000000     0.198010000000     0.135790000000    -0.0665406  
C25      C      0.073810000000     0.152750000000     0.090020000000     0.0130339  
C26      C      0.057160000000     0.171690000000     0.110520000000     0.0131656  
C27      C      0.032530000000     0.160060000000     0.377950000000    -0.0239418  
C28      C      0.130010000000     0.196960000000     0.351370000000    -0.0244294  
C29      C      0.100720000000     0.230270000000     0.315300000000    -0.0235328  
C30      C      0.088730000000     0.204300000000     0.339980000000     0.0129093  
C31      C      0.105370000000     0.185360000000     0.360500000000     0.0136782  
C32      C      0.098380000000     0.159040000000     0.385760000000    -0.0666269  
C33      C      0.061820000000     0.126760000000     0.414040000000    -0.023786   
C34      C      0.064160000000     0.197980000000     0.343570000000    -0.0664473  
C35      C      0.073800000000     0.152720000000     0.389340000000     0.0131654  
C36      C      0.057160000000     0.171660000000     0.368830000000     0.0129879  
C37      C      0.100680000000     0.376730000000     0.164030000000    -0.0235224  
C38      C      0.061800000000     0.480310000000     0.065350000000    -0.0237172  
C39      C      0.032510000000     0.447060000000     0.101440000000    -0.0238834  
C40      C      0.057130000000     0.435420000000     0.110550000000     0.0130068  
C41      C      0.073780000000     0.454320000000     0.090020000000     0.0131515  
C42      C      0.098350000000     0.447960000000     0.093580000000    -0.0666758  
C43      C      0.129970000000     0.409980000000     0.127940000000    -0.0239852  
C44      C      0.064130000000     0.409070000000     0.135790000000    -0.066555   
C45      C      0.105340000000     0.421620000000     0.118830000000     0.0133385  
C46      C      0.088700000000     0.402700000000     0.139350000000     0.0129796  
C47      C      0.311770000000     0.229210000000     0.165320000000    -0.0234945  
C48      C      0.350760000000     0.127840000000     0.064200000000    -0.0235833  
C49      C      0.380060000000     0.162460000000     0.098790000000    -0.023916   
C50      C      0.355410000000     0.172920000000     0.109190000000     0.0132125  
C51      C      0.338750000000     0.153240000000     0.089510000000     0.0130153  
C52      C      0.314150000000     0.158260000000     0.094530000000    -0.0666443  
C53      C      0.282460000000     0.194580000000     0.130730000000    -0.0237628  
C54      C      0.348380000000     0.198760000000     0.135000000000    -0.0665968  
C55      C      0.307130000000     0.184100000000     0.120350000000     0.013097   
C56      C      0.323780000000     0.203800000000     0.140020000000     0.0131224  
C57      C      0.282480000000     0.412180000000     0.349070000000    -0.0235778  
C58      C      0.380080000000     0.444610000000     0.380660000000    -0.0239484  
C59      C      0.350760000000     0.479140000000     0.415350000000    -0.023542   
C60      C      0.338760000000     0.453690000000     0.390100000000     0.0128227  
C61      C      0.355420000000     0.434060000000     0.370360000000     0.0132729  
C62      C      0.348410000000     0.408200000000     0.344570000000    -0.0667573  
C63      C      0.311800000000     0.377670000000     0.314330000000    -0.0235555  
C64      C      0.314160000000     0.448570000000     0.385180000000    -0.0664452  
C65      C      0.323810000000     0.403080000000     0.339640000000     0.0130914  
C66      C      0.307140000000     0.422700000000     0.359400000000     0.0126899  
C67      C      0.311770000000     0.229280000000     0.314150000000    -0.0234555  
C68      C      0.350750000000     0.127910000000     0.415290000000    -0.0233371  
C69      C      0.380050000000     0.162480000000     0.380660000000    -0.0237206  
C70      C      0.355400000000     0.172970000000     0.370290000000     0.0131113  
C71      C      0.338740000000     0.153320000000     0.389980000000     0.0130001  
C72      C      0.314140000000     0.158390000000     0.384990000000    -0.0666004  
C73      C      0.282460000000     0.194710000000     0.348790000000    -0.0235488  
C74      C      0.348380000000     0.198810000000     0.344470000000    -0.06658    
C75      C      0.307120000000     0.184230000000     0.359170000000     0.0128727  
C76      C      0.323770000000     0.203880000000     0.339470000000     0.0129624  
C77      C      0.032540000000     0.447030000000     0.378040000000    -0.0238864  
C78      C      0.129990000000     0.410080000000     0.351390000000    -0.0239347  
C79      C      0.100700000000     0.376780000000     0.315340000000    -0.0237681  
C80      C      0.088720000000     0.402750000000     0.340030000000     0.0131555  
C81      C      0.105370000000     0.421690000000     0.360520000000     0.0133333  
C82      C      0.098370000000     0.448030000000     0.385780000000    -0.0665487  
C83      C      0.061820000000     0.480340000000     0.414070000000    -0.0234905  
C84      C      0.064150000000     0.409080000000     0.343630000000    -0.0665793  
C85      C      0.073800000000     0.454360000000     0.389380000000     0.0130802  
C86      C      0.057160000000     0.435420000000     0.368890000000     0.013189   
C87      C      0.311760000000     0.377810000000     0.165140000000    -0.0237133  
C88      C      0.350740000000     0.479230000000     0.064080000000    -0.0233917  
C89      C      0.380050000000     0.444650000000     0.098750000000    -0.0238659  
C90      C      0.355380000000     0.434140000000     0.109080000000     0.0132084  
C91      C      0.338730000000     0.453800000000     0.089360000000     0.0129643  
C92      C      0.314120000000     0.448720000000     0.094330000000    -0.0664946  
C93      C      0.282450000000     0.412370000000     0.130460000000    -0.0238846  
C94      C      0.348370000000     0.408290000000     0.134870000000    -0.0666688  
C95      C      0.307100000000     0.422870000000     0.120120000000     0.0131207  
C96      C      0.323760000000     0.403210000000     0.139830000000     0.0130447  
H1       H      0.489550000000     0.479780000000     0.489600000000     0.195599   
H2       H      0.422780000000     0.053470000000     0.067950000000     0.195365   
H3       H      0.489530000000     0.127360000000     0.489800000000     0.195742   
H4       H      0.422780000000     0.053680000000     0.411450000000     0.195613   
H5       H      0.466550000000     0.022720000000     0.119940000000     0.139592   
H6       H      0.465300000000     0.119120000000     0.127420000000     0.202837   
H7       H      0.447210000000     0.176960000000     0.023390000000     0.136441   
H8       H      0.465540000000     0.182110000000     0.454020000000     0.188102   
H9       H      0.466640000000     0.084470000000     0.359470000000     0.139739   
H10      H      0.444650000000     0.019900000000     0.354070000000     0.190303   
H11      H      0.447310000000     0.430170000000     0.456040000000     0.136528   
H12      H      0.465660000000     0.425030000000     0.025420000000     0.188356   
H13      H      0.449810000000     0.182800000000     0.414200000000     0.202403   
H14      H      0.465160000000     0.487790000000     0.351980000000     0.202829   
H15      H      0.449820000000     0.424310000000     0.065120000000     0.20258    
H16      H      0.444550000000     0.087390000000     0.125330000000     0.190183   
H17      H      0.172930000000     0.377340000000     0.239480000000     0.1955     
H18      H      0.239770000000     0.303700000000     0.317910000000     0.192637   
H19      H      0.173000000000     0.229760000000     0.239900000000     0.195628   
H20      H      0.239720000000     0.303360000000     0.161440000000     0.195564   
H21      H      0.219660000000     0.338380000000     0.369940000000     0.129323   
H22      H      0.198530000000     0.272920000000     0.375710000000     0.197356   
H23      H      0.215120000000     0.180160000000     0.273740000000     0.135949   
H24      H      0.197030000000     0.174990000000     0.204240000000     0.188151   
H25      H      0.195870000000     0.272490000000     0.109500000000     0.139699   
H26      H      0.217810000000     0.337070000000     0.104010000000     0.190212   
H27      H      0.215420000000     0.426940000000     0.205660000000     0.137033   
H28      H      0.196310000000     0.431930000000     0.274630000000     0.188623   
H29      H      0.212680000000     0.174240000000     0.164360000000     0.202649   
H30      H      0.197360000000     0.369260000000     0.101910000000     0.203078   
H31      H      0.213650000000     0.433270000000     0.312730000000     0.202281   
H32      H      0.215670000000     0.236710000000     0.377100000000     0.201265   
H33      H      0.096660000000     0.224500000000     0.193920000000     0.0430883  
H34      H      0.140450000000     0.174710000000     0.140000000000     0.04126    
H35      H      0.111390000000     0.144250000000     0.077590000000     0.0433175  
H36      H      0.051150000000     0.212820000000     0.151820000000     0.0432379  
H37      H      0.023630000000     0.148940000000     0.126510000000     0.0402748  
H38      H      0.065890000000     0.132580000000     0.035500000000     0.0433758  
H39      H      0.095380000000     0.257620000000     0.156470000000     0.0444585  
H40      H      0.138900000000     0.208140000000     0.102890000000     0.0437461  
H41      H      0.067160000000     0.099450000000     0.072950000000     0.0443285  
H42      H      0.022100000000     0.182380000000     0.089410000000     0.0436928  
H43      H      0.095380000000     0.257600000000     0.322940000000     0.0446092  
H44      H      0.138890000000     0.208110000000     0.376530000000     0.0438945  
H45      H      0.111380000000     0.144230000000     0.401800000000     0.0436897  
H46      H      0.051160000000     0.212790000000     0.327540000000     0.0431911  
H47      H      0.022080000000     0.182330000000     0.389910000000     0.041158   
H48      H      0.067160000000     0.099430000000     0.406420000000     0.0444792  
H49      H      0.096670000000     0.224490000000     0.285480000000     0.043221   
H50      H      0.140450000000     0.174690000000     0.339410000000     0.045026   
H51      H      0.065870000000     0.132560000000     0.443860000000     0.0432524  
H52      H      0.023640000000     0.148890000000     0.352800000000     0.0434564  
H53      H      0.023630000000     0.458240000000     0.126600000000     0.0434478  
H54      H      0.067140000000     0.007640000000     0.072980000000     0.0443993  
H55      H      0.111340000000     0.462740000000     0.077540000000     0.0434458  
H56      H      0.051130000000     0.394300000000     0.151830000000     0.0432009  
H57      H      0.096630000000     0.382510000000     0.193850000000     0.0432155  
H58      H      0.138850000000     0.398790000000     0.102780000000     0.0405958  
H59      H      0.022050000000     0.424810000000     0.089500000000     0.0411443  
H60      H      0.065840000000     0.474520000000     0.035530000000     0.043255   
H61      H      0.140420000000     0.432230000000     0.139880000000     0.0438417  
H62      H      0.095350000000     0.349400000000     0.156390000000     0.0443226  
H63      H      0.389740000000     0.151930000000     0.123550000000     0.0414125  
H64      H      0.346050000000     0.100280000000     0.071950000000     0.0429754  
H65      H      0.301150000000     0.142880000000     0.079160000000     0.0431203  
H66      H      0.361390000000     0.214150000000     0.150370000000     0.0434386  
H67      H      0.316420000000     0.223510000000     0.194940000000     0.0444558  
H68      H      0.272800000000     0.205100000000     0.105970000000     0.0429676  
H69      H      0.389740000000     0.185100000000     0.086110000000     0.044438   
H70      H      0.346120000000     0.133540000000     0.034580000000     0.0445414  
H71      H      0.272780000000     0.171940000000     0.143430000000     0.040797   
H72      H      0.316500000000     0.256750000000     0.157560000000     0.0431476  
H73      H      0.346180000000     0.473440000000     0.444990000000     0.0444626  
H74      H      0.389830000000     0.421990000000     0.393310000000     0.0443971  
H75      H      0.361410000000     0.392860000000     0.329140000000     0.0434807  
H76      H      0.301140000000     0.463920000000     0.400610000000     0.0428736  
H77      H      0.272870000000     0.401570000000     0.373840000000     0.0403923  
H78      H      0.316410000000     0.383420000000     0.284710000000     0.0445189  
H79      H      0.345970000000     0.006680000000     0.407600000000     0.0428912  
H80      H      0.389690000000     0.455170000000     0.355860000000     0.0414232  
H81      H      0.316570000000     0.350130000000     0.322050000000     0.0427601  
H82      H      0.272730000000     0.434820000000     0.336470000000     0.0401965  
H83      H      0.389760000000     0.185110000000     0.393330000000     0.0407556  
H84      H      0.346120000000     0.133630000000     0.444910000000     0.0443435  
H85      H      0.301130000000     0.143030000000     0.400370000000     0.0430966  
H86      H      0.361390000000     0.214170000000     0.329070000000     0.0430985  
H87      H      0.316510000000     0.256830000000     0.321880000000     0.0427322  
H88      H      0.272760000000     0.172080000000     0.336120000000     0.0433656  
H89      H      0.389710000000     0.151930000000     0.355890000000     0.0430028  
H90      H      0.346000000000     0.100360000000     0.407540000000     0.0430752  
H91      H      0.272800000000     0.205280000000     0.373550000000     0.038406   
H92      H      0.316400000000     0.223550000000     0.284520000000     0.0445063  
H93      H      0.096640000000     0.382560000000     0.285530000000     0.0431084  
H94      H      0.140430000000     0.432340000000     0.339410000000     0.0416632  
H95      H      0.111370000000     0.462830000000     0.401800000000     0.0435032  
H96      H      0.051150000000     0.394280000000     0.327610000000     0.0432705  
H97      H      0.023630000000     0.458200000000     0.352890000000     0.0402996  
H98      H      0.065890000000     0.474560000000     0.443890000000     0.0433116  
H99      H      0.095390000000     0.349450000000     0.322990000000     0.0448501  
H100     H      0.138890000000     0.398930000000     0.376540000000     0.0460968  
H101     H      0.067140000000     0.007670000000     0.406420000000     0.0442718  
H102     H      0.022100000000     0.424770000000     0.390000000000     0.0436939  
H103     H      0.389770000000     0.422020000000     0.086080000000     0.0408254  
H104     H      0.346120000000     0.473520000000     0.034450000000     0.0444012  
H105     H      0.301110000000     0.464090000000     0.078910000000     0.0433576  
H106     H      0.361370000000     0.392930000000     0.150280000000     0.0431909  
H107     H      0.316510000000     0.350260000000     0.157400000000     0.0429792  
H108     H      0.272720000000     0.435010000000     0.143110000000     0.0443533  
H109     H      0.389680000000     0.455200000000     0.123530000000     0.04306    
H110     H      0.345960000000     0.006770000000     0.071830000000     0.0430696  
H111     H      0.272800000000     0.401810000000     0.105690000000     0.0413177  
H112     H      0.316380000000     0.383530000000     0.194760000000     0.0445958  
N1       N      0.036380000000     0.132550000000     0.073160000000    -0.166443   
N2       N      0.126150000000     0.224540000000     0.156240000000    -0.166436   
N3       N      0.036370000000     0.132510000000     0.406170000000    -0.166286   
N4       N      0.126160000000     0.224530000000     0.323170000000    -0.165679   
N5       N      0.126120000000     0.382450000000     0.156150000000    -0.166456   
N6       N      0.036360000000     0.474600000000     0.073230000000    -0.16647    
N7       N      0.286310000000     0.222520000000     0.158490000000    -0.166493   
N8       N      0.376220000000     0.134530000000     0.071010000000    -0.166582   
N9       N      0.286340000000     0.384310000000     0.321210000000    -0.16715    
N10      N      0.376220000000     0.472530000000     0.408450000000    -0.166467   
N11      N      0.286310000000     0.222620000000     0.320990000000    -0.167092   
N12      N      0.376200000000     0.134560000000     0.408440000000    -0.166511   
N13      N      0.036380000000     0.474590000000     0.406230000000    -0.166545   
N14      N      0.126150000000     0.382530000000     0.323200000000    -0.165906   
N15      N      0.286290000000     0.384470000000     0.158280000000    -0.166418   
N16      N      0.376200000000     0.472580000000     0.070960000000    -0.166358   
O1       O      0.415880000000     0.482140000000     0.417420000000    -0.376274   
O2       O      0.388360000000     0.014430000000     0.449500000000    -0.371732   
O3       O      0.496700000000     0.484210000000     0.064240000000    -0.377047   
O4       O      0.024200000000     0.015100000000     0.030640000000    -0.37163    
O5       O      0.415850000000     0.482180000000     0.061970000000    -0.374498   
O6       O      0.388330000000     0.014430000000     0.029840000000    -0.37136    
O7       O      0.496730000000     0.484170000000     0.415240000000    -0.375685   
O8       O      0.024230000000     0.015150000000     0.448750000000    -0.371488   
O9       O      0.457290000000     0.436920000000     0.434330000000    -0.348027   
O10      O      0.455220000000     0.003510000000     0.366530000000    -0.526768   
O11      O      0.457380000000     0.437410000000     0.045180000000    -0.524462   
O12      O      0.455220000000     0.003640000000     0.113360000000    -0.351789   
O13      O      0.433270000000     0.000260000000     0.489610000000    -0.498572   
O14      O      0.479230000000     0.000220000000     0.489620000000    -0.633823   
O15      O      0.496710000000     0.122930000000     0.415150000000    -0.376802   
O16      O      0.024220000000     0.092010000000     0.448770000000    -0.371246   
O17      O      0.415870000000     0.124970000000     0.061980000000    -0.376483   
O18      O      0.388360000000     0.092670000000     0.029920000000    -0.371734   
O19      O      0.496730000000     0.122980000000     0.064160000000    -0.375679   
O20      O      0.024240000000     0.091980000000     0.030650000000    -0.37115    
O21      O      0.415860000000     0.124950000000     0.417450000000    -0.374592   
O22      O      0.388340000000     0.092720000000     0.449550000000    -0.371782   
O23      O      0.457320000000     0.169710000000     0.434210000000    -0.524122   
O24      O      0.455240000000     0.103470000000     0.366040000000    -0.352016   
O25      O      0.457210000000     0.170200000000     0.045100000000    -0.347874   
O26      O      0.455240000000     0.103600000000     0.112860000000    -0.526881   
O27      O      0.479220000000     0.106920000000     0.489790000000    -0.634014   
O28      O      0.433270000000     0.106850000000     0.489790000000    -0.498304   
O29      O      0.479450000000     0.053620000000     0.433050000000    -0.49859    
O30      O      0.433180000000     0.053500000000     0.046380000000    -0.633314   
O31      O      0.433180000000     0.053650000000     0.433010000000    -0.633662   
O32      O      0.479450000000     0.053480000000     0.046340000000    -0.498512   
O33      O      0.246630000000     0.374890000000     0.167290000000    -0.376364   
O34      O      0.274160000000     0.342650000000     0.199420000000    -0.371669   
O35      O      0.165800000000     0.372950000000     0.314170000000    -0.370675   
O36      O      0.138300000000     0.342020000000     0.280610000000    -0.371204   
O37      O      0.246680000000     0.374780000000     0.312150000000    -0.381415   
O38      O      0.274200000000     0.342650000000     0.279890000000    -0.37204    
O39      O      0.165780000000     0.372870000000     0.165160000000    -0.375603   
O40      O      0.138280000000     0.341920000000     0.198710000000    -0.371496   
O41      O      0.205220000000     0.420150000000     0.184190000000    -0.34807    
O42      O      0.207270000000     0.353520000000     0.116460000000    -0.526955   
O43      O      0.205310000000     0.419850000000     0.293820000000    -0.524811   
O44      O      0.206720000000     0.355090000000     0.363340000000    -0.345185   
O45      O      0.229260000000     0.356900000000     0.239520000000    -0.498421   
O46      O      0.183270000000     0.356910000000     0.239530000000    -0.63332    
O47      O      0.165810000000     0.234130000000     0.165230000000    -0.376945   
O48      O      0.138310000000     0.265060000000     0.198810000000    -0.371667   
O49      O      0.246660000000     0.232230000000     0.311990000000    -0.380066   
O50      O      0.274180000000     0.264480000000     0.279900000000    -0.372073   
O51      O      0.165830000000     0.234130000000     0.314210000000    -0.370806   
O52      O      0.138310000000     0.265130000000     0.280700000000    -0.370821   
O53      O      0.246660000000     0.232110000000     0.167520000000    -0.374774   
O54      O      0.274180000000     0.264390000000     0.199570000000    -0.371702   
O55      O      0.205210000000     0.187350000000     0.184380000000    -0.524624   
O56      O      0.207270000000     0.253490000000     0.116100000000    -0.351887   
O57      O      0.205410000000     0.187030000000     0.295710000000    -0.34776    
O58      O      0.207020000000     0.254270000000     0.362910000000    -0.529478   
O59      O      0.183300000000     0.250210000000     0.239860000000    -0.634285   
O60      O      0.229240000000     0.250300000000     0.239850000000    -0.498459   
O61      O      0.183070000000     0.303440000000     0.183050000000    -0.49844    
O62      O      0.229340000000     0.303730000000     0.296370000000    -0.633355   
O63      O      0.229330000000     0.303420000000     0.183010000000    -0.6336     
O64      O      0.183100000000     0.303770000000     0.296330000000    -0.496224   
Zr1      Zr     0.456280000000     0.001170000000     0.433880000000     1.37573    
Zr2      Zr     0.456280000000     0.001020000000     0.045350000000     1.37596    
Zr3      Zr     0.456280000000     0.106110000000     0.434040000000     1.3757     
Zr4      Zr     0.456280000000     0.105970000000     0.045530000000     1.37619    
Zr5      Zr     0.410840000000     0.053560000000     0.489690000000     1.37901    
Zr6      Zr     0.001730000000     0.053570000000     0.489700000000     1.37742    
Zr7      Zr     0.206230000000     0.355910000000     0.183800000000     1.37599    
Zr8      Zr     0.206240000000     0.356250000000     0.295240000000     1.37537    
Zr9      Zr     0.206240000000     0.250950000000     0.184110000000     1.37583    
Zr10     Zr     0.206240000000     0.251270000000     0.295600000000     1.37661    
Zr11     Zr     0.251680000000     0.303580000000     0.239680000000     1.37869    
Zr12     Zr     0.160790000000     0.303550000000     0.239710000000     1.37879    
C97      C      0.394160000000     0.490360000000     0.925800000000     0.394415   
C98      C      0.018410000000     0.492080000000     0.555490000000     0.393555   
C99      C      0.394140000000     0.490380000000     0.553570000000     0.395504   
C100     C      0.018440000000     0.492070000000     0.923970000000     0.39454    
C101     C      0.018420000000     0.115050000000     0.923920000000     0.392987   
C102     C      0.394160000000     0.116740000000     0.553610000000     0.3946     
C103     C      0.018440000000     0.115070000000     0.555430000000     0.394166   
C104     C      0.394140000000     0.116760000000     0.925840000000     0.39558    
C105     C      0.268350000000     0.366680000000     0.675680000000     0.394211   
C106     C      0.144090000000     0.365060000000     0.805430000000     0.39432    
C107     C      0.268400000000     0.366600000000     0.803730000000     0.39513    
C108     C      0.144070000000     0.364970000000     0.673900000000     0.394828   
C109     C      0.144100000000     0.242010000000     0.673980000000     0.394111   
C110     C      0.268370000000     0.240430000000     0.803600000000     0.395477   
C111     C      0.144110000000     0.242030000000     0.805470000000     0.393733   
C112     C      0.268370000000     0.240320000000     0.675890000000     0.395789   
C113     C      0.032540000000     0.160100000000     0.601370000000    -0.0238857  
C114     C      0.130010000000     0.196980000000     0.628040000000    -0.0239492  
C115     C      0.100710000000     0.230280000000     0.664100000000    -0.0235763  
C116     C      0.088730000000     0.204330000000     0.639400000000     0.0129698  
C117     C      0.105380000000     0.185380000000     0.618890000000     0.0131105  
C118     C      0.098380000000     0.159060000000     0.593630000000    -0.0664738  
C119     C      0.061830000000     0.126790000000     0.565320000000    -0.0235447  
C120     C      0.064150000000     0.198010000000     0.635790000000    -0.0665372  
C121     C      0.073810000000     0.152750000000     0.590020000000     0.0130101  
C122     C      0.057160000000     0.171690000000     0.610520000000     0.0131573  
C123     C      0.032530000000     0.160060000000     0.877950000000    -0.0239819  
C124     C      0.130010000000     0.196960000000     0.851370000000    -0.0244246  
C125     C      0.100720000000     0.230270000000     0.815300000000    -0.0235364  
C126     C      0.088730000000     0.204300000000     0.839980000000     0.012914   
C127     C      0.105370000000     0.185360000000     0.860500000000     0.0136646  
C128     C      0.098380000000     0.159040000000     0.885760000000    -0.0666226  
C129     C      0.061820000000     0.126760000000     0.914040000000    -0.0237792  
C130     C      0.064160000000     0.197980000000     0.843570000000    -0.0664615  
C131     C      0.073800000000     0.152720000000     0.889350000000     0.0131427  
C132     C      0.057160000000     0.171660000000     0.868830000000     0.0130052  
C133     C      0.100680000000     0.376730000000     0.664030000000    -0.0235191  
C134     C      0.061800000000     0.480310000000     0.565350000000    -0.0236898  
C135     C      0.032510000000     0.447060000000     0.601450000000    -0.0239476  
C136     C      0.057130000000     0.435420000000     0.610550000000     0.0130292  
C137     C      0.073780000000     0.454320000000     0.590020000000     0.0131213  
C138     C      0.098350000000     0.447960000000     0.593580000000    -0.0666712  
C139     C      0.129970000000     0.409980000000     0.627940000000    -0.0239796  
C140     C      0.064130000000     0.409070000000     0.635790000000    -0.0665464  
C141     C      0.105340000000     0.421620000000     0.618830000000     0.0133254  
C142     C      0.088700000000     0.402700000000     0.639350000000     0.0129726  
C143     C      0.311770000000     0.229210000000     0.665320000000    -0.0234658  
C144     C      0.350760000000     0.127830000000     0.564200000000    -0.023618   
C145     C      0.380060000000     0.162460000000     0.598790000000    -0.0239097  
C146     C      0.355400000000     0.172920000000     0.609180000000     0.0132035  
C147     C      0.338750000000     0.153240000000     0.589520000000     0.0129978  
C148     C      0.314150000000     0.158260000000     0.594540000000    -0.0666357  
C149     C      0.282460000000     0.194580000000     0.630730000000    -0.0237927  
C150     C      0.348380000000     0.198760000000     0.635000000000    -0.066592   
C151     C      0.307130000000     0.184100000000     0.620350000000     0.0131048  
C152     C      0.323780000000     0.203800000000     0.640020000000     0.0131028  
C153     C      0.282480000000     0.412180000000     0.849070000000    -0.023578   
C154     C      0.380080000000     0.444610000000     0.880660000000    -0.0239434  
C155     C      0.350760000000     0.479140000000     0.915360000000    -0.0234904  
C156     C      0.338760000000     0.453690000000     0.890100000000     0.0128052  
C157     C      0.355420000000     0.434060000000     0.870360000000     0.0132702  
C158     C      0.348410000000     0.408200000000     0.844570000000    -0.0667601  
C159     C      0.311800000000     0.377670000000     0.814330000000    -0.0235552  
C160     C      0.314160000000     0.448570000000     0.885180000000    -0.0664663  
C161     C      0.323810000000     0.403080000000     0.839640000000     0.0130879  
C162     C      0.307140000000     0.422700000000     0.859400000000     0.012687   
C163     C      0.311770000000     0.229280000000     0.814150000000    -0.0234985  
C164     C      0.350750000000     0.127910000000     0.915290000000    -0.0233234  
C165     C      0.380050000000     0.162480000000     0.880660000000    -0.0237556  
C166     C      0.355400000000     0.172970000000     0.870290000000     0.0131272  
C167     C      0.338740000000     0.153320000000     0.889980000000     0.0129657  
C168     C      0.314140000000     0.158390000000     0.884990000000    -0.0665659  
C169     C      0.282460000000     0.194710000000     0.848790000000    -0.0235375  
C170     C      0.348380000000     0.198810000000     0.844470000000    -0.0666028  
C171     C      0.307120000000     0.184230000000     0.859170000000     0.0128431  
C172     C      0.323770000000     0.203880000000     0.839470000000     0.0129836  
C173     C      0.032540000000     0.447030000000     0.878040000000    -0.0238854  
C174     C      0.129990000000     0.410080000000     0.851390000000    -0.0239316  
C175     C      0.100700000000     0.376780000000     0.815340000000    -0.0237747  
C176     C      0.088720000000     0.402750000000     0.840030000000     0.0131672  
C177     C      0.105370000000     0.421690000000     0.860530000000     0.0133238  
C178     C      0.098370000000     0.448030000000     0.885780000000    -0.0665562  
C179     C      0.061820000000     0.480340000000     0.914070000000    -0.0235116  
C180     C      0.064150000000     0.409080000000     0.843630000000    -0.0666129  
C181     C      0.073800000000     0.454360000000     0.889380000000     0.0130718  
C182     C      0.057160000000     0.435420000000     0.868890000000     0.0131936  
C183     C      0.311760000000     0.377810000000     0.665140000000    -0.0237211  
C184     C      0.350740000000     0.479230000000     0.564080000000    -0.0233469  
C185     C      0.380050000000     0.444650000000     0.598740000000    -0.023864   
C186     C      0.355380000000     0.434140000000     0.609080000000     0.0132076  
C187     C      0.338730000000     0.453800000000     0.589360000000     0.0129313  
C188     C      0.314120000000     0.448730000000     0.594330000000    -0.0664676  
C189     C      0.282440000000     0.412370000000     0.630470000000    -0.0238241  
C190     C      0.348370000000     0.408290000000     0.634870000000    -0.0666826  
C191     C      0.307100000000     0.422870000000     0.620120000000     0.0130588  
C192     C      0.323760000000     0.403210000000     0.639830000000     0.0130626  
H113     H      0.489550000000     0.479780000000     0.989600000000     0.195555   
H114     H      0.422780000000     0.053470000000     0.567950000000     0.195378   
H115     H      0.489530000000     0.127360000000     0.989800000000     0.195697   
H116     H      0.422780000000     0.053680000000     0.911450000000     0.195448   
H117     H      0.466550000000     0.022720000000     0.619940000000     0.139601   
H118     H      0.465300000000     0.119120000000     0.627410000000     0.202951   
H119     H      0.447210000000     0.176960000000     0.523400000000     0.136607   
H120     H      0.465540000000     0.182110000000     0.954020000000     0.188105   
H121     H      0.466640000000     0.084470000000     0.859470000000     0.139739   
H122     H      0.444650000000     0.019900000000     0.854070000000     0.190232   
H123     H      0.447310000000     0.430170000000     0.956040000000     0.136481   
H124     H      0.465660000000     0.425030000000     0.525420000000     0.188283   
H125     H      0.449810000000     0.182800000000     0.914210000000     0.202541   
H126     H      0.465160000000     0.487790000000     0.851990000000     0.202815   
H127     H      0.449820000000     0.424310000000     0.565120000000     0.20254    
H128     H      0.444550000000     0.087390000000     0.625330000000     0.190229   
H129     H      0.172930000000     0.377340000000     0.739480000000     0.1955     
H130     H      0.239770000000     0.303700000000     0.817910000000     0.192806   
H131     H      0.173000000000     0.229760000000     0.739900000000     0.19564    
H132     H      0.239720000000     0.303360000000     0.661440000000     0.195559   
H133     H      0.219660000000     0.338380000000     0.869940000000     0.129317   
H134     H      0.198530000000     0.272920000000     0.875710000000     0.197341   
H135     H      0.215120000000     0.180160000000     0.773740000000     0.135825   
H136     H      0.197030000000     0.174990000000     0.704240000000     0.188044   
H137     H      0.195870000000     0.272490000000     0.609500000000     0.139686   
H138     H      0.217810000000     0.337070000000     0.604010000000     0.190193   
H139     H      0.215420000000     0.426940000000     0.705660000000     0.137033   
H140     H      0.196310000000     0.431930000000     0.774630000000     0.188622   
H141     H      0.212680000000     0.174240000000     0.664360000000     0.202756   
H142     H      0.197360000000     0.369260000000     0.601910000000     0.203057   
H143     H      0.213650000000     0.433270000000     0.812730000000     0.202273   
H144     H      0.215670000000     0.236710000000     0.877100000000     0.201244   
H145     H      0.096660000000     0.224500000000     0.693920000000     0.0430803  
H146     H      0.140450000000     0.174710000000     0.640000000000     0.0412585  
H147     H      0.111390000000     0.144250000000     0.577590000000     0.0432931  
H148     H      0.051150000000     0.212820000000     0.651820000000     0.0432323  
H149     H      0.023630000000     0.148940000000     0.626510000000     0.0402633  
H150     H      0.065890000000     0.132580000000     0.535500000000     0.0433121  
H151     H      0.095380000000     0.257620000000     0.656470000000     0.044431   
H152     H      0.138900000000     0.208140000000     0.602890000000     0.0437229  
H153     H      0.067160000000     0.099450000000     0.572950000000     0.0443022  
H154     H      0.022090000000     0.182380000000     0.589410000000     0.0436609  
H155     H      0.095380000000     0.257600000000     0.822940000000     0.0446044  
H156     H      0.138890000000     0.208110000000     0.876530000000     0.0438777  
H157     H      0.111380000000     0.144230000000     0.901800000000     0.0436681  
H158     H      0.051160000000     0.212790000000     0.827540000000     0.0431912  
H159     H      0.022080000000     0.182330000000     0.889910000000     0.0411533  
H160     H      0.067160000000     0.099430000000     0.906420000000     0.0444688  
H161     H      0.096670000000     0.224490000000     0.785480000000     0.0432235  
H162     H      0.140450000000     0.174690000000     0.839410000000     0.0450239  
H163     H      0.065870000000     0.132560000000     0.943860000000     0.0432131  
H164     H      0.023640000000     0.148890000000     0.852810000000     0.0434771  
H165     H      0.023630000000     0.458240000000     0.626600000000     0.0434722  
H166     H      0.067140000000     0.007640000000     0.572990000000     0.0443844  
H167     H      0.111340000000     0.462740000000     0.577540000000     0.0434215  
H168     H      0.051130000000     0.394300000000     0.651840000000     0.0431865  
H169     H      0.096630000000     0.382510000000     0.693850000000     0.0432155  
H170     H      0.138850000000     0.398790000000     0.602780000000     0.0405751  
H171     H      0.022050000000     0.424820000000     0.589490000000     0.0411602  
H172     H      0.065840000000     0.474520000000     0.535530000000     0.0432042  
H173     H      0.140420000000     0.432230000000     0.639880000000     0.043835   
H174     H      0.095350000000     0.349400000000     0.656390000000     0.0443143  
H175     H      0.389740000000     0.151930000000     0.623550000000     0.0414158  
H176     H      0.346050000000     0.100280000000     0.571950000000     0.0429828  
H177     H      0.301150000000     0.142880000000     0.579160000000     0.0430861  
H178     H      0.361390000000     0.214150000000     0.650370000000     0.043433   
H179     H      0.316420000000     0.223510000000     0.694940000000     0.0444553  
H180     H      0.272800000000     0.205100000000     0.605970000000     0.0429525  
H181     H      0.389740000000     0.185100000000     0.586110000000     0.0444143  
H182     H      0.346120000000     0.133540000000     0.534580000000     0.0445025  
H183     H      0.272780000000     0.171940000000     0.643430000000     0.0408004  
H184     H      0.316500000000     0.256750000000     0.657560000000     0.0431336  
H185     H      0.346180000000     0.473440000000     0.945000000000     0.0444089  
H186     H      0.389830000000     0.421990000000     0.893310000000     0.0443795  
H187     H      0.361410000000     0.392860000000     0.829140000000     0.0434776  
H188     H      0.301140000000     0.463920000000     0.900600000000     0.042868   
H189     H      0.272870000000     0.401570000000     0.873840000000     0.0403758  
H190     H      0.316410000000     0.383420000000     0.784710000000     0.04452    
H191     H      0.345970000000     0.006680000000     0.907600000000     0.0428851  
H192     H      0.389690000000     0.455170000000     0.855860000000     0.0414237  
H193     H      0.316570000000     0.350130000000     0.822050000000     0.0427538  
H194     H      0.272730000000     0.434820000000     0.836470000000     0.0401917  
H195     H      0.389750000000     0.185110000000     0.893330000000     0.0407546  
H196     H      0.346120000000     0.133630000000     0.944910000000     0.0443014  
H197     H      0.301130000000     0.143030000000     0.900380000000     0.0430583  
H198     H      0.361390000000     0.214170000000     0.829070000000     0.0430998  
H199     H      0.316510000000     0.256830000000     0.821880000000     0.0427362  
H200     H      0.272760000000     0.172080000000     0.836120000000     0.0433564  
H201     H      0.389710000000     0.151930000000     0.855890000000     0.0430137  
H202     H      0.346000000000     0.100360000000     0.907540000000     0.0430638  
H203     H      0.272800000000     0.205280000000     0.873550000000     0.0383867  
H204     H      0.316400000000     0.223550000000     0.784530000000     0.0445261  
H205     H      0.096640000000     0.382560000000     0.785530000000     0.0431107  
H206     H      0.140430000000     0.432340000000     0.839410000000     0.0416579  
H207     H      0.111370000000     0.462830000000     0.901800000000     0.0434836  
H208     H      0.051150000000     0.394280000000     0.827620000000     0.0432848  
H209     H      0.023630000000     0.458200000000     0.852890000000     0.040299   
H210     H      0.065890000000     0.474560000000     0.943880000000     0.0432836  
H211     H      0.095390000000     0.349450000000     0.822990000000     0.0448457  
H212     H      0.138890000000     0.398930000000     0.876540000000     0.0460794  
H213     H      0.067140000000     0.007670000000     0.906420000000     0.0442715  
H214     H      0.022100000000     0.424770000000     0.890000000000     0.0436769  
H215     H      0.389770000000     0.422020000000     0.586080000000     0.0408082  
H216     H      0.346120000000     0.473520000000     0.534450000000     0.0443506  
H217     H      0.301110000000     0.464100000000     0.578910000000     0.0433272  
H218     H      0.361370000000     0.392930000000     0.650280000000     0.04319    
H219     H      0.316510000000     0.350260000000     0.657400000000     0.0429743  
H220     H      0.272720000000     0.435020000000     0.643120000000     0.0443306  
H221     H      0.389680000000     0.455200000000     0.623520000000     0.0430602  
H222     H      0.345960000000     0.006770000000     0.571830000000     0.0430504  
H223     H      0.272800000000     0.401810000000     0.605690000000     0.0412874  
H224     H      0.316380000000     0.383530000000     0.694760000000     0.0445985  
N17      N      0.036380000000     0.132550000000     0.573160000000    -0.166464   
N18      N      0.126150000000     0.224540000000     0.656240000000    -0.16647    
N19      N      0.036370000000     0.132510000000     0.906170000000    -0.166286   
N20      N      0.126160000000     0.224530000000     0.823170000000    -0.165677   
N21      N      0.126120000000     0.382450000000     0.656150000000    -0.166462   
N22      N      0.036360000000     0.474600000000     0.573240000000    -0.166436   
N23      N      0.286310000000     0.222520000000     0.658500000000    -0.166524   
N24      N      0.376220000000     0.134530000000     0.571010000000    -0.166564   
N25      N      0.286340000000     0.384310000000     0.821210000000    -0.167151   
N26      N      0.376220000000     0.472530000000     0.908450000000    -0.166498   
N27      N      0.286310000000     0.222620000000     0.820990000000    -0.167089   
N28      N      0.376200000000     0.134560000000     0.908440000000    -0.166514   
N29      N      0.036380000000     0.474590000000     0.906230000000    -0.166572   
N30      N      0.126150000000     0.382530000000     0.823200000000    -0.165905   
N31      N      0.286290000000     0.384470000000     0.658280000000    -0.166425   
N32      N      0.376200000000     0.472580000000     0.570950000000    -0.16642    
O65      O      0.415880000000     0.482140000000     0.917420000000    -0.376299   
O66      O      0.388360000000     0.014430000000     0.949490000000    -0.371793   
O67      O      0.496700000000     0.484210000000     0.564240000000    -0.377049   
O68      O      0.024200000000     0.015090000000     0.530650000000    -0.371685   
O69      O      0.415850000000     0.482180000000     0.561970000000    -0.374553   
O70      O      0.388330000000     0.014430000000     0.529850000000    -0.371511   
O71      O      0.496730000000     0.484170000000     0.915240000000    -0.375728   
O72      O      0.024230000000     0.015150000000     0.948740000000    -0.371537   
O73      O      0.457290000000     0.436920000000     0.934330000000    -0.348041   
O74      O      0.455220000000     0.003510000000     0.866540000000    -0.52674    
O75      O      0.457380000000     0.437410000000     0.545180000000    -0.52436    
O76      O      0.455220000000     0.003640000000     0.613360000000    -0.351841   
O77      O      0.433270000000     0.000260000000     0.989610000000    -0.498708   
O78      O      0.479230000000     0.000220000000     0.989620000000    -0.633949   
O79      O      0.496710000000     0.122930000000     0.915150000000    -0.3768     
O80      O      0.024220000000     0.092010000000     0.948770000000    -0.371256   
O81      O      0.415870000000     0.124970000000     0.561980000000    -0.376497   
O82      O      0.388360000000     0.092670000000     0.529920000000    -0.371895   
O83      O      0.496730000000     0.122980000000     0.564160000000    -0.375701   
O84      O      0.024240000000     0.091980000000     0.530650000000    -0.371259   
O85      O      0.415860000000     0.124950000000     0.917450000000    -0.374593   
O86      O      0.388340000000     0.092720000000     0.949550000000    -0.371791   
O87      O      0.457320000000     0.169710000000     0.934210000000    -0.524304   
O88      O      0.455240000000     0.103470000000     0.866040000000    -0.352014   
O89      O      0.457210000000     0.170200000000     0.545090000000    -0.34811    
O90      O      0.455240000000     0.103600000000     0.612860000000    -0.527008   
O91      O      0.479220000000     0.106920000000     0.989790000000    -0.634067   
O92      O      0.433270000000     0.106850000000     0.989790000000    -0.498377   
O93      O      0.479450000000     0.053620000000     0.933050000000    -0.498581   
O94      O      0.433180000000     0.053500000000     0.546380000000    -0.63337    
O95      O      0.433180000000     0.053650000000     0.933020000000    -0.633532   
O96      O      0.479450000000     0.053480000000     0.546340000000    -0.49857    
O97      O      0.246630000000     0.374890000000     0.667290000000    -0.376365   
O98      O      0.274160000000     0.342650000000     0.699420000000    -0.371662   
O99      O      0.165800000000     0.372950000000     0.814170000000    -0.370674   
O100     O      0.138300000000     0.342020000000     0.780610000000    -0.37116    
O101     O      0.246680000000     0.374780000000     0.812150000000    -0.381421   
O102     O      0.274200000000     0.342650000000     0.779890000000    -0.372041   
O103     O      0.165780000000     0.372870000000     0.665160000000    -0.375614   
O104     O      0.138280000000     0.341920000000     0.698710000000    -0.371543   
O105     O      0.205220000000     0.420150000000     0.684190000000    -0.348075   
O106     O      0.207270000000     0.353520000000     0.616460000000    -0.526951   
O107     O      0.205310000000     0.419850000000     0.793820000000    -0.524808   
O108     O      0.206720000000     0.355090000000     0.863350000000    -0.345156   
O109     O      0.229260000000     0.356900000000     0.739520000000    -0.498417   
O110     O      0.183270000000     0.356910000000     0.739530000000    -0.633315   
O111     O      0.165810000000     0.234130000000     0.665230000000    -0.376961   
O112     O      0.138310000000     0.265060000000     0.698810000000    -0.37164    
O113     O      0.246660000000     0.232230000000     0.811990000000    -0.380082   
O114     O      0.274180000000     0.264480000000     0.779900000000    -0.372073   
O115     O      0.165830000000     0.234130000000     0.814210000000    -0.370793   
O116     O      0.138310000000     0.265130000000     0.780700000000    -0.370776   
O117     O      0.246660000000     0.232110000000     0.667520000000    -0.374791   
O118     O      0.274180000000     0.264390000000     0.699570000000    -0.371705   
O119     O      0.205210000000     0.187350000000     0.684370000000    -0.524622   
O120     O      0.207270000000     0.253490000000     0.616100000000    -0.3519     
O121     O      0.205400000000     0.187030000000     0.795710000000    -0.347648   
O122     O      0.207020000000     0.254270000000     0.862910000000    -0.529474   
O123     O      0.183300000000     0.250210000000     0.739860000000    -0.634283   
O124     O      0.229240000000     0.250300000000     0.739850000000    -0.498463   
O125     O      0.183070000000     0.303440000000     0.683050000000    -0.4985     
O126     O      0.229340000000     0.303730000000     0.796380000000    -0.63346    
O127     O      0.229330000000     0.303420000000     0.683010000000    -0.633593   
O128     O      0.183100000000     0.303770000000     0.796330000000    -0.496163   
Zr13     Zr     0.456280000000     0.001170000000     0.933880000000     1.37577    
Zr14     Zr     0.456280000000     0.001020000000     0.545360000000     1.37577    
Zr15     Zr     0.456280000000     0.106110000000     0.934040000000     1.3757     
Zr16     Zr     0.456280000000     0.105970000000     0.545530000000     1.37602    
Zr17     Zr     0.410840000000     0.053560000000     0.989690000000     1.37879    
Zr18     Zr     0.001730000000     0.053570000000     0.989700000000     1.37718    
Zr19     Zr     0.206230000000     0.355910000000     0.683800000000     1.37598    
Zr20     Zr     0.206240000000     0.356250000000     0.795240000000     1.37532    
Zr21     Zr     0.206240000000     0.250950000000     0.684110000000     1.37583    
Zr22     Zr     0.206240000000     0.251270000000     0.795600000000     1.3766     
Zr23     Zr     0.251680000000     0.303580000000     0.739680000000     1.37862    
Zr24     Zr     0.160790000000     0.303550000000     0.739700000000     1.37878    
C193     C      0.394160000000     0.990350000000     0.425800000000     0.394305   
C194     C      0.018410000000     0.992080000000     0.055480000000     0.393815   
C195     C      0.394140000000     0.990380000000     0.053570000000     0.395385   
C196     C      0.018440000000     0.992070000000     0.423970000000     0.39439    
C197     C      0.018420000000     0.615050000000     0.423920000000     0.392999   
C198     C      0.394160000000     0.616740000000     0.053620000000     0.394511   
C199     C      0.018440000000     0.615070000000     0.055430000000     0.394195   
C200     C      0.394140000000     0.616760000000     0.425840000000     0.395378   
C201     C      0.268350000000     0.866680000000     0.175680000000     0.394212   
C202     C      0.144090000000     0.865060000000     0.305430000000     0.394331   
C203     C      0.268400000000     0.866600000000     0.303730000000     0.395067   
C204     C      0.144070000000     0.864970000000     0.173900000000     0.394882   
C205     C      0.144100000000     0.742010000000     0.173990000000     0.394067   
C206     C      0.268370000000     0.740430000000     0.303600000000     0.39548    
C207     C      0.144110000000     0.742030000000     0.305470000000     0.393743   
C208     C      0.268370000000     0.740320000000     0.175890000000     0.395602   
C209     C      0.032540000000     0.660100000000     0.101370000000    -0.0239464  
C210     C      0.130010000000     0.696980000000     0.128040000000    -0.0239183  
C211     C      0.100710000000     0.730290000000     0.164100000000    -0.0236611  
C212     C      0.088730000000     0.704330000000     0.139390000000     0.013021   
C213     C      0.105380000000     0.685390000000     0.118900000000     0.0130916  
C214     C      0.098380000000     0.659060000000     0.093630000000    -0.0664783  
C215     C      0.061830000000     0.626790000000     0.065310000000    -0.0235915  
C216     C      0.064150000000     0.698020000000     0.135790000000    -0.066578   
C217     C      0.073810000000     0.652750000000     0.090020000000     0.013037   
C218     C      0.057160000000     0.671690000000     0.110520000000     0.0131717  
C219     C      0.032530000000     0.660060000000     0.377950000000    -0.0239493  
C220     C      0.130010000000     0.696960000000     0.351370000000    -0.024428   
C221     C      0.100720000000     0.730270000000     0.315300000000    -0.0234995  
C222     C      0.088730000000     0.704300000000     0.339980000000     0.012916   
C223     C      0.105370000000     0.685360000000     0.360500000000     0.013675   
C224     C      0.098380000000     0.659040000000     0.385760000000    -0.0666217  
C225     C      0.061820000000     0.626770000000     0.414040000000    -0.0237561  
C226     C      0.064160000000     0.697990000000     0.343570000000    -0.066469   
C227     C      0.073800000000     0.652720000000     0.389340000000     0.0131617  
C228     C      0.057160000000     0.671660000000     0.368830000000     0.0129885  
C229     C      0.100680000000     0.876720000000     0.164030000000    -0.0235234  
C230     C      0.061800000000     0.980310000000     0.065350000000    -0.0236277  
C231     C      0.032510000000     0.947070000000     0.101440000000    -0.0238596  
C232     C      0.057130000000     0.935410000000     0.110550000000     0.0130083  
C233     C      0.073780000000     0.954320000000     0.090020000000     0.0131279  
C234     C      0.098350000000     0.947960000000     0.093580000000    -0.0666441  
C235     C      0.129970000000     0.909970000000     0.127940000000    -0.0239068  
C236     C      0.064130000000     0.909070000000     0.135790000000    -0.0665626  
C237     C      0.105340000000     0.921620000000     0.118830000000     0.0132997  
C238     C      0.088700000000     0.902700000000     0.139350000000     0.0129958  
C239     C      0.311770000000     0.729200000000     0.165320000000    -0.0234549  
C240     C      0.350760000000     0.627830000000     0.064200000000    -0.0236488  
C241     C      0.380060000000     0.662460000000     0.098790000000    -0.0238412  
C242     C      0.355410000000     0.672920000000     0.109190000000     0.0131797  
C243     C      0.338750000000     0.653240000000     0.089510000000     0.013037   
C244     C      0.314150000000     0.658270000000     0.094530000000    -0.0666428  
C245     C      0.282460000000     0.694580000000     0.130730000000    -0.0238117  
C246     C      0.348380000000     0.698760000000     0.135000000000    -0.0665743  
C247     C      0.307130000000     0.684100000000     0.120350000000     0.0131276  
C248     C      0.323780000000     0.703790000000     0.140020000000     0.0130986  
C249     C      0.282480000000     0.912170000000     0.349070000000    -0.0234997  
C250     C      0.380080000000     0.944600000000     0.380660000000    -0.0240378  
C251     C      0.350760000000     0.979150000000     0.415350000000    -0.0234639  
C252     C      0.338760000000     0.953690000000     0.390100000000     0.012783   
C253     C      0.355420000000     0.934060000000     0.370360000000     0.0133311  
C254     C      0.348410000000     0.908200000000     0.344570000000    -0.066789   
C255     C      0.311800000000     0.877670000000     0.314330000000    -0.0235692  
C256     C      0.314160000000     0.948570000000     0.385180000000    -0.0664045  
C257     C      0.323810000000     0.903080000000     0.339640000000     0.0131206  
C258     C      0.307140000000     0.922700000000     0.359400000000     0.0126439  
C259     C      0.311770000000     0.729280000000     0.314150000000    -0.0234949  
C260     C      0.350750000000     0.627910000000     0.415290000000    -0.0233906  
C261     C      0.380050000000     0.662480000000     0.380660000000    -0.0237276  
C262     C      0.355400000000     0.672970000000     0.370290000000     0.0131101  
C263     C      0.338740000000     0.653320000000     0.389980000000     0.0130168  
C264     C      0.314140000000     0.658390000000     0.384990000000    -0.0666065  
C265     C      0.282460000000     0.694710000000     0.348790000000    -0.02355    
C266     C      0.348380000000     0.698810000000     0.344470000000    -0.0665839  
C267     C      0.307120000000     0.684230000000     0.359170000000     0.0128733  
C268     C      0.323770000000     0.703880000000     0.339470000000     0.0129732  
C269     C      0.032540000000     0.947030000000     0.378040000000    -0.0238497  
C270     C      0.129990000000     0.910080000000     0.351390000000    -0.0239364  
C271     C      0.100700000000     0.876780000000     0.315340000000    -0.0237671  
C272     C      0.088720000000     0.902750000000     0.340030000000     0.0131534  
C273     C      0.105370000000     0.921690000000     0.360520000000     0.0133379  
C274     C      0.098370000000     0.948030000000     0.385780000000    -0.0665481  
C275     C      0.061820000000     0.980340000000     0.414070000000    -0.023459   
C276     C      0.064150000000     0.909080000000     0.343630000000    -0.0665711  
C277     C      0.073800000000     0.954350000000     0.389380000000     0.0130876  
C278     C      0.057160000000     0.935420000000     0.368890000000     0.0131772  
C279     C      0.311760000000     0.877800000000     0.165140000000    -0.0237535  
C280     C      0.350740000000     0.979230000000     0.064080000000    -0.0233319  
C281     C      0.380050000000     0.944650000000     0.098750000000    -0.0238675  
C282     C      0.355380000000     0.934140000000     0.109080000000     0.0132181  
C283     C      0.338730000000     0.953800000000     0.089360000000     0.0129544  
C284     C      0.314120000000     0.948730000000     0.094330000000    -0.0664812  
C285     C      0.282450000000     0.912380000000     0.130460000000    -0.0239121  
C286     C      0.348370000000     0.908290000000     0.134870000000    -0.066678   
C287     C      0.307100000000     0.922870000000     0.120120000000     0.0131168  
C288     C      0.323760000000     0.903220000000     0.139830000000     0.0130631  
H225     H      0.489550000000     0.979780000000     0.489600000000     0.195843   
H226     H      0.422780000000     0.553470000000     0.067950000000     0.195356   
H227     H      0.489530000000     0.627360000000     0.489800000000     0.195739   
H228     H      0.422780000000     0.553690000000     0.411450000000     0.195596   
H229     H      0.466550000000     0.522720000000     0.119940000000     0.139603   
H230     H      0.465300000000     0.619110000000     0.127420000000     0.20297    
H231     H      0.447210000000     0.676950000000     0.023390000000     0.136468   
H232     H      0.465540000000     0.682110000000     0.454020000000     0.188102   
H233     H      0.466640000000     0.584480000000     0.359470000000     0.139733   
H234     H      0.444650000000     0.519900000000     0.354070000000     0.190193   
H235     H      0.447310000000     0.930170000000     0.456040000000     0.136529   
H236     H      0.465660000000     0.925030000000     0.025420000000     0.188212   
H237     H      0.449810000000     0.682800000000     0.414200000000     0.20241    
H238     H      0.465160000000     0.987790000000     0.351980000000     0.20278    
H239     H      0.449820000000     0.924310000000     0.065120000000     0.202428   
H240     H      0.444550000000     0.587390000000     0.125330000000     0.190227   
H241     H      0.172930000000     0.877340000000     0.239480000000     0.195499   
H242     H      0.239770000000     0.803700000000     0.317910000000     0.192631   
H243     H      0.173000000000     0.729760000000     0.239900000000     0.195831   
H244     H      0.239720000000     0.803360000000     0.161440000000     0.195584   
H245     H      0.219660000000     0.838380000000     0.369940000000     0.129319   
H246     H      0.198530000000     0.772920000000     0.375710000000     0.197357   
H247     H      0.215120000000     0.680160000000     0.273740000000     0.13596    
H248     H      0.197030000000     0.674990000000     0.204240000000     0.188006   
H249     H      0.195870000000     0.772490000000     0.109500000000     0.139693   
H250     H      0.217810000000     0.837070000000     0.104010000000     0.190211   
H251     H      0.215420000000     0.926940000000     0.205660000000     0.137038   
H252     H      0.196310000000     0.931930000000     0.274630000000     0.188628   
H253     H      0.212680000000     0.674240000000     0.164360000000     0.202498   
H254     H      0.197360000000     0.869260000000     0.101910000000     0.203081   
H255     H      0.213650000000     0.933270000000     0.312730000000     0.20229    
H256     H      0.215670000000     0.736710000000     0.377100000000     0.201266   
H257     H      0.096660000000     0.724500000000     0.193920000000     0.0430986  
H258     H      0.140450000000     0.674710000000     0.140000000000     0.0412605  
H259     H      0.111390000000     0.644260000000     0.077590000000     0.0433321  
H260     H      0.051150000000     0.712820000000     0.151820000000     0.0432579  
H261     H      0.023640000000     0.648940000000     0.126510000000     0.040288   
H262     H      0.065890000000     0.632580000000     0.035500000000     0.0433755  
H263     H      0.095380000000     0.757620000000     0.156470000000     0.0444634  
H264     H      0.138900000000     0.708140000000     0.102890000000     0.0437378  
H265     H      0.067160000000     0.599450000000     0.072950000000     0.0443297  
H266     H      0.022100000000     0.682380000000     0.089410000000     0.0437024  
H267     H      0.095380000000     0.757610000000     0.322940000000     0.0445941  
H268     H      0.138890000000     0.708110000000     0.376530000000     0.0438954  
H269     H      0.111380000000     0.644230000000     0.401800000000     0.0436917  
H270     H      0.051160000000     0.712790000000     0.327540000000     0.0432069  
H271     H      0.022080000000     0.682330000000     0.389910000000     0.0411603  
H272     H      0.067160000000     0.599430000000     0.406420000000     0.0444679  
H273     H      0.096670000000     0.724490000000     0.285480000000     0.0432132  
H274     H      0.140450000000     0.674690000000     0.339410000000     0.0450284  
H275     H      0.065870000000     0.632550000000     0.443860000000     0.0432476  
H276     H      0.023640000000     0.648900000000     0.352800000000     0.0434589  
H277     H      0.023640000000     0.958250000000     0.126600000000     0.0434588  
H278     H      0.067140000000     0.507630000000     0.072980000000     0.0444577  
H279     H      0.111340000000     0.962740000000     0.077540000000     0.0434461  
H280     H      0.051130000000     0.894300000000     0.151830000000     0.0432052  
H281     H      0.096630000000     0.882510000000     0.193850000000     0.043217   
H282     H      0.138850000000     0.898790000000     0.102780000000     0.0405759  
H283     H      0.022050000000     0.924820000000     0.089500000000     0.0411541  
H284     H      0.065840000000     0.974520000000     0.035530000000     0.0432449  
H285     H      0.140420000000     0.932230000000     0.139880000000     0.043813   
H286     H      0.095350000000     0.849390000000     0.156390000000     0.0443216  
H287     H      0.389740000000     0.651930000000     0.123550000000     0.0413946  
H288     H      0.346050000000     0.600280000000     0.071950000000     0.0429986  
H289     H      0.301150000000     0.642880000000     0.079160000000     0.0431143  
H290     H      0.361390000000     0.714150000000     0.150370000000     0.0434335  
H291     H      0.316420000000     0.723510000000     0.194940000000     0.0444429  
H292     H      0.272800000000     0.705100000000     0.105970000000     0.0429834  
H293     H      0.389740000000     0.685110000000     0.086110000000     0.0444132  
H294     H      0.346120000000     0.633550000000     0.034580000000     0.044558   
H295     H      0.272780000000     0.671950000000     0.143430000000     0.0408261  
H296     H      0.316500000000     0.756750000000     0.157560000000     0.0431333  
H297     H      0.346180000000     0.973440000000     0.444990000000     0.0444542  
H298     H      0.389830000000     0.921990000000     0.393310000000     0.0444229  
H299     H      0.361410000000     0.892860000000     0.329140000000     0.0434906  
H300     H      0.301140000000     0.963920000000     0.400610000000     0.042872   
H301     H      0.272870000000     0.901570000000     0.373840000000     0.0403744  
H302     H      0.316410000000     0.883420000000     0.284710000000     0.0445252  
H303     H      0.345970000000     0.506670000000     0.407600000000     0.0429384  
H304     H      0.389690000000     0.955160000000     0.355860000000     0.0414521  
H305     H      0.316570000000     0.850130000000     0.322050000000     0.0427632  
H306     H      0.272730000000     0.934820000000     0.336470000000     0.0401812  
H307     H      0.389760000000     0.685110000000     0.393330000000     0.0407648  
H308     H      0.346120000000     0.633630000000     0.444910000000     0.0443563  
H309     H      0.301130000000     0.643030000000     0.400370000000     0.0431018  
H310     H      0.361390000000     0.714170000000     0.329070000000     0.0431004  
H311     H      0.316510000000     0.756820000000     0.321880000000     0.0427499  
H312     H      0.272760000000     0.672080000000     0.336120000000     0.0433689  
H313     H      0.389710000000     0.651930000000     0.355890000000     0.0430096  
H314     H      0.346000000000     0.600370000000     0.407540000000     0.0431026  
H315     H      0.272800000000     0.705280000000     0.373550000000     0.0384072  
H316     H      0.316400000000     0.723550000000     0.284520000000     0.0445157  
H317     H      0.096640000000     0.882560000000     0.285530000000     0.0431098  
H318     H      0.140430000000     0.932340000000     0.339410000000     0.0416685  
H319     H      0.111370000000     0.962830000000     0.401800000000     0.043512   
H320     H      0.051150000000     0.894280000000     0.327610000000     0.0432704  
H321     H      0.023630000000     0.958200000000     0.352890000000     0.040297   
H322     H      0.065890000000     0.974560000000     0.443890000000     0.0433164  
H323     H      0.095390000000     0.849450000000     0.322990000000     0.0448498  
H324     H      0.138890000000     0.898930000000     0.376540000000     0.0460991  
H325     H      0.067140000000     0.507670000000     0.406420000000     0.0443124  
H326     H      0.022100000000     0.924770000000     0.390000000000     0.0436895  
H327     H      0.389770000000     0.922020000000     0.086080000000     0.0408312  
H328     H      0.346120000000     0.973520000000     0.034450000000     0.0443974  
H329     H      0.301110000000     0.964100000000     0.078910000000     0.0433634  
H330     H      0.361370000000     0.892930000000     0.150280000000     0.0431966  
H331     H      0.316510000000     0.850260000000     0.157400000000     0.0429983  
H332     H      0.272720000000     0.935020000000     0.143110000000     0.0443637  
H333     H      0.389680000000     0.955200000000     0.123530000000     0.0430707  
H334     H      0.345960000000     0.506770000000     0.071830000000     0.0431118  
H335     H      0.272800000000     0.901810000000     0.105690000000     0.0413296  
H336     H      0.316380000000     0.883530000000     0.194760000000     0.0446095  
N33      N      0.036380000000     0.632550000000     0.073160000000    -0.166445   
N34      N      0.126150000000     0.724530000000     0.156240000000    -0.166399   
N35      N      0.036370000000     0.632510000000     0.406170000000    -0.166287   
N36      N      0.126160000000     0.724530000000     0.323170000000    -0.165683   
N37      N      0.126120000000     0.882450000000     0.156150000000    -0.166481   
N38      N      0.036360000000     0.974600000000     0.073230000000    -0.166476   
N39      N      0.286310000000     0.722520000000     0.158490000000    -0.166469   
N40      N      0.376220000000     0.634540000000     0.071010000000    -0.166546   
N41      N      0.286340000000     0.884310000000     0.321210000000    -0.167141   
N42      N      0.376220000000     0.972530000000     0.408450000000    -0.16649    
N43      N      0.286310000000     0.722620000000     0.320990000000    -0.167086   
N44      N      0.376200000000     0.634560000000     0.408440000000    -0.166464   
N45      N      0.036380000000     0.974580000000     0.406230000000    -0.166519   
N46      N      0.126150000000     0.882530000000     0.323200000000    -0.165905   
N47      N      0.286290000000     0.884470000000     0.158280000000    -0.166405   
N48      N      0.376200000000     0.972580000000     0.070960000000    -0.166364   
O129     O      0.415880000000     0.982140000000     0.417420000000    -0.376255   
O130     O      0.388360000000     0.514430000000     0.449500000000    -0.371763   
O131     O      0.496700000000     0.984210000000     0.064240000000    -0.376968   
O132     O      0.024200000000     0.515090000000     0.030640000000    -0.37157    
O133     O      0.415850000000     0.982180000000     0.061970000000    -0.374452   
O134     O      0.388330000000     0.514430000000     0.029840000000    -0.37132    
O135     O      0.496730000000     0.984170000000     0.415240000000    -0.375636   
O136     O      0.024230000000     0.515150000000     0.448750000000    -0.371461   
O137     O      0.457290000000     0.936920000000     0.434330000000    -0.347939   
O138     O      0.455220000000     0.503500000000     0.366530000000    -0.526703   
O139     O      0.457380000000     0.937420000000     0.045180000000    -0.524155   
O140     O      0.455220000000     0.503640000000     0.113360000000    -0.351776   
O141     O      0.433270000000     0.500260000000     0.489610000000    -0.498567   
O142     O      0.479230000000     0.500230000000     0.489620000000    -0.63367    
O143     O      0.496710000000     0.622930000000     0.415150000000    -0.376799   
O144     O      0.024220000000     0.592010000000     0.448770000000    -0.371255   
O145     O      0.415870000000     0.624970000000     0.061980000000    -0.37647    
O146     O      0.388360000000     0.592670000000     0.029920000000    -0.371727   
O147     O      0.496730000000     0.622980000000     0.064160000000    -0.375685   
O148     O      0.024240000000     0.591980000000     0.030650000000    -0.371232   
O149     O      0.415860000000     0.624960000000     0.417450000000    -0.374498   
O150     O      0.388340000000     0.592710000000     0.449550000000    -0.371714   
O151     O      0.457320000000     0.669710000000     0.434210000000    -0.524116   
O152     O      0.455240000000     0.603480000000     0.366040000000    -0.352012   
O153     O      0.457210000000     0.670210000000     0.045100000000    -0.347855   
O154     O      0.455240000000     0.603600000000     0.112860000000    -0.527037   
O155     O      0.479220000000     0.606920000000     0.489790000000    -0.634015   
O156     O      0.433270000000     0.606850000000     0.489790000000    -0.498311   
O157     O      0.479450000000     0.553620000000     0.433050000000    -0.498534   
O158     O      0.433180000000     0.553500000000     0.046380000000    -0.633239   
O159     O      0.433180000000     0.553650000000     0.433010000000    -0.633602   
O160     O      0.479450000000     0.553480000000     0.046340000000    -0.498437   
O161     O      0.246630000000     0.874890000000     0.167290000000    -0.376362   
O162     O      0.274160000000     0.842650000000     0.199420000000    -0.37166    
O163     O      0.165800000000     0.872950000000     0.314170000000    -0.37067    
O164     O      0.138300000000     0.842020000000     0.280610000000    -0.371196   
O165     O      0.246680000000     0.874790000000     0.312150000000    -0.381354   
O166     O      0.274200000000     0.842650000000     0.279890000000    -0.372029   
O167     O      0.165780000000     0.872860000000     0.165160000000    -0.375653   
O168     O      0.138280000000     0.841920000000     0.198710000000    -0.371499   
O169     O      0.205220000000     0.920150000000     0.184190000000    -0.348074   
O170     O      0.207270000000     0.853520000000     0.116460000000    -0.526954   
O171     O      0.205310000000     0.919850000000     0.293820000000    -0.524807   
O172     O      0.206720000000     0.855090000000     0.363340000000    -0.345183   
O173     O      0.229260000000     0.856900000000     0.239520000000    -0.498425   
O174     O      0.183270000000     0.856910000000     0.239530000000    -0.633313   
O175     O      0.165810000000     0.734130000000     0.165230000000    -0.376906   
O176     O      0.138310000000     0.765060000000     0.198810000000    -0.371653   
O177     O      0.246660000000     0.732230000000     0.311990000000    -0.380065   
O178     O      0.274180000000     0.764480000000     0.279900000000    -0.372076   
O179     O      0.165830000000     0.734130000000     0.314210000000    -0.370806   
O180     O      0.138310000000     0.765130000000     0.280700000000    -0.370822   
O181     O      0.246660000000     0.732110000000     0.167520000000    -0.374708   
O182     O      0.274180000000     0.764400000000     0.199570000000    -0.371641   
O183     O      0.205210000000     0.687360000000     0.184380000000    -0.524337   
O184     O      0.207270000000     0.753490000000     0.116100000000    -0.351882   
O185     O      0.205410000000     0.687030000000     0.295710000000    -0.347753   
O186     O      0.207020000000     0.754270000000     0.362910000000    -0.529479   
O187     O      0.183300000000     0.750200000000     0.239860000000    -0.634405   
O188     O      0.229240000000     0.750300000000     0.239850000000    -0.498457   
O189     O      0.183070000000     0.803440000000     0.183050000000    -0.498498   
O190     O      0.229340000000     0.803730000000     0.296370000000    -0.633365   
O191     O      0.229330000000     0.803420000000     0.183010000000    -0.633677   
O192     O      0.183100000000     0.803770000000     0.296330000000    -0.496227   
Zr25     Zr     0.456280000000     0.501160000000     0.433880000000     1.37578    
Zr26     Zr     0.456280000000     0.501010000000     0.045350000000     1.37597    
Zr27     Zr     0.456280000000     0.606110000000     0.434040000000     1.37565    
Zr28     Zr     0.456280000000     0.605970000000     0.045530000000     1.37614    
Zr29     Zr     0.410840000000     0.553560000000     0.489690000000     1.37905    
Zr30     Zr     0.001730000000     0.553570000000     0.489700000000     1.37753    
Zr31     Zr     0.206230000000     0.855910000000     0.183800000000     1.37601    
Zr32     Zr     0.206240000000     0.856250000000     0.295240000000     1.37534    
Zr33     Zr     0.206240000000     0.750960000000     0.184110000000     1.37588    
Zr34     Zr     0.206240000000     0.751270000000     0.295600000000     1.37661    
Zr35     Zr     0.251680000000     0.803580000000     0.239680000000     1.37869    
Zr36     Zr     0.160790000000     0.803550000000     0.239710000000     1.3787     
C289     C      0.394160000000     0.990350000000     0.925800000000     0.394422   
C290     C      0.018410000000     0.992080000000     0.555490000000     0.393735   
C291     C      0.394140000000     0.990380000000     0.553570000000     0.395558   
C292     C      0.018440000000     0.992070000000     0.923970000000     0.394438   
C293     C      0.018420000000     0.615050000000     0.923920000000     0.393152   
C294     C      0.394160000000     0.616740000000     0.553610000000     0.394552   
C295     C      0.018440000000     0.615070000000     0.555430000000     0.394169   
C296     C      0.394140000000     0.616760000000     0.925840000000     0.395376   
C297     C      0.268350000000     0.866690000000     0.675680000000     0.394098   
C298     C      0.144090000000     0.865060000000     0.805430000000     0.394323   
C299     C      0.268400000000     0.866600000000     0.803730000000     0.395128   
C300     C      0.144070000000     0.864970000000     0.673900000000     0.394834   
C301     C      0.144100000000     0.742010000000     0.673980000000     0.394102   
C302     C      0.268370000000     0.740420000000     0.803600000000     0.395443   
C303     C      0.144110000000     0.742030000000     0.805470000000     0.393734   
C304     C      0.268370000000     0.740320000000     0.675890000000     0.395643   
C305     C      0.032540000000     0.660100000000     0.601370000000    -0.023922   
C306     C      0.130010000000     0.696980000000     0.628040000000    -0.0239542  
C307     C      0.100710000000     0.730280000000     0.664100000000    -0.0235338  
C308     C      0.088730000000     0.704320000000     0.639400000000     0.0129568  
C309     C      0.105380000000     0.685390000000     0.618890000000     0.0131191  
C310     C      0.098380000000     0.659060000000     0.593630000000    -0.0664983  
C311     C      0.061830000000     0.626790000000     0.565320000000    -0.0235501  
C312     C      0.064150000000     0.698010000000     0.635790000000    -0.0665331  
C313     C      0.073810000000     0.652750000000     0.590020000000     0.0130224  
C314     C      0.057160000000     0.671690000000     0.610520000000     0.0131603  
C315     C      0.032530000000     0.660060000000     0.877950000000    -0.0239851  
C316     C      0.130010000000     0.696960000000     0.851370000000    -0.0244251  
C317     C      0.100720000000     0.730270000000     0.815300000000    -0.0234969  
C318     C      0.088730000000     0.704300000000     0.839980000000     0.0129039  
C319     C      0.105370000000     0.685360000000     0.860500000000     0.0136678  
C320     C      0.098380000000     0.659040000000     0.885760000000    -0.0666172  
C321     C      0.061820000000     0.626770000000     0.914040000000    -0.02373    
C322     C      0.064160000000     0.697980000000     0.843570000000    -0.0664577  
C323     C      0.073800000000     0.652720000000     0.889350000000     0.0131311  
C324     C      0.057160000000     0.671660000000     0.868830000000     0.0130101  
C325     C      0.100680000000     0.876720000000     0.664030000000    -0.0235614  
C326     C      0.061800000000     0.980310000000     0.565350000000    -0.0236198  
C327     C      0.032510000000     0.947070000000     0.601450000000    -0.0238912  
C328     C      0.057130000000     0.935420000000     0.610550000000     0.0130166  
C329     C      0.073780000000     0.954320000000     0.590020000000     0.013103   
C330     C      0.098350000000     0.947960000000     0.593580000000    -0.0666351  
C331     C      0.129970000000     0.909970000000     0.627940000000    -0.0238628  
C332     C      0.064130000000     0.909070000000     0.635790000000    -0.0665532  
C333     C      0.105340000000     0.921620000000     0.618830000000     0.0132673  
C334     C      0.088700000000     0.902710000000     0.639350000000     0.0130055  
C335     C      0.311770000000     0.729210000000     0.665320000000    -0.0234724  
C336     C      0.350760000000     0.627840000000     0.564200000000    -0.0235974  
C337     C      0.380060000000     0.662460000000     0.598790000000    -0.0238384  
C338     C      0.355400000000     0.672920000000     0.609180000000     0.0131849  
C339     C      0.338750000000     0.653240000000     0.589520000000     0.0129877  
C340     C      0.314150000000     0.658270000000     0.594540000000    -0.0666123  
C341     C      0.282460000000     0.694580000000     0.630730000000    -0.023838   
C342     C      0.348380000000     0.698760000000     0.635000000000    -0.0665807  
C343     C      0.307130000000     0.684110000000     0.620350000000     0.0131219  
C344     C      0.323780000000     0.703800000000     0.640020000000     0.0130957  
C345     C      0.282480000000     0.912180000000     0.849070000000    -0.0236178  
C346     C      0.380080000000     0.944610000000     0.880660000000    -0.0239409  
C347     C      0.350760000000     0.979150000000     0.915360000000    -0.0234635  
C348     C      0.338760000000     0.953690000000     0.890100000000     0.0128088  
C349     C      0.355420000000     0.934060000000     0.870360000000     0.013272   
C350     C      0.348410000000     0.908200000000     0.844570000000    -0.0667565  
C351     C      0.311800000000     0.877670000000     0.814330000000    -0.0235535  
C352     C      0.314160000000     0.948570000000     0.885180000000    -0.0664738  
C353     C      0.323810000000     0.903080000000     0.839640000000     0.0130834  
C354     C      0.307140000000     0.922710000000     0.859400000000     0.0127093  
C355     C      0.311770000000     0.729280000000     0.814150000000    -0.0234915  
C356     C      0.350750000000     0.627910000000     0.915290000000    -0.0233745  
C357     C      0.380050000000     0.662480000000     0.880660000000    -0.0237631  
C358     C      0.355400000000     0.672970000000     0.870290000000     0.0131282  
C359     C      0.338740000000     0.653320000000     0.889980000000     0.0129771  
C360     C      0.314140000000     0.658390000000     0.884990000000    -0.0665577  
C361     C      0.282460000000     0.694720000000     0.848790000000    -0.0234612  
C362     C      0.348380000000     0.698810000000     0.844470000000    -0.0666055  
C363     C      0.307120000000     0.684230000000     0.859170000000     0.0128133  
C364     C      0.323770000000     0.703880000000     0.839470000000     0.0129922  
C365     C      0.032540000000     0.947030000000     0.878040000000    -0.0238525  
C366     C      0.129990000000     0.910080000000     0.851390000000    -0.0239343  
C367     C      0.100700000000     0.876780000000     0.815340000000    -0.023765   
C368     C      0.088720000000     0.902760000000     0.840030000000     0.0131496  
C369     C      0.105370000000     0.921690000000     0.860530000000     0.0133332  
C370     C      0.098370000000     0.948030000000     0.885780000000    -0.0665582  
C371     C      0.061820000000     0.980340000000     0.914070000000    -0.0234862  
C372     C      0.064150000000     0.909090000000     0.843630000000    -0.0665807  
C373     C      0.073800000000     0.954350000000     0.889380000000     0.013081   
C374     C      0.057160000000     0.935420000000     0.868890000000     0.0131856  
C375     C      0.311760000000     0.877800000000     0.665140000000    -0.0237476  
C376     C      0.350740000000     0.979230000000     0.564080000000    -0.0232899  
C377     C      0.380050000000     0.944650000000     0.598740000000    -0.0238713  
C378     C      0.355380000000     0.934140000000     0.609080000000     0.0132145  
C379     C      0.338730000000     0.953800000000     0.589360000000     0.0129254  
C380     C      0.314120000000     0.948720000000     0.594330000000    -0.0664859  
C381     C      0.282440000000     0.912380000000     0.630470000000    -0.023955   
C382     C      0.348370000000     0.908290000000     0.634870000000    -0.0666805  
C383     C      0.307100000000     0.922870000000     0.620120000000     0.0131221  
C384     C      0.323760000000     0.903220000000     0.639830000000     0.0130554  
H337     H      0.489550000000     0.979780000000     0.989600000000     0.195805   
H338     H      0.422780000000     0.553470000000     0.567950000000     0.195382   
H339     H      0.489530000000     0.627360000000     0.989800000000     0.195697   
H340     H      0.422780000000     0.553690000000     0.911450000000     0.19543    
H341     H      0.466550000000     0.522720000000     0.619940000000     0.139608   
H342     H      0.465300000000     0.619120000000     0.627410000000     0.202953   
H343     H      0.447210000000     0.676950000000     0.523400000000     0.136634   
H344     H      0.465540000000     0.682110000000     0.954020000000     0.188107   
H345     H      0.466640000000     0.584480000000     0.859470000000     0.139737   
H346     H      0.444650000000     0.519900000000     0.854070000000     0.190122   
H347     H      0.447310000000     0.930170000000     0.956040000000     0.136486   
H348     H      0.465660000000     0.925030000000     0.525420000000     0.188157   
H349     H      0.449810000000     0.682800000000     0.914210000000     0.202549   
H350     H      0.465160000000     0.987790000000     0.851990000000     0.202766   
H351     H      0.449820000000     0.924310000000     0.565120000000     0.202407   
H352     H      0.444550000000     0.587390000000     0.625330000000     0.190233   
H353     H      0.172930000000     0.877350000000     0.739480000000     0.195318   
H354     H      0.239770000000     0.803700000000     0.817910000000     0.192812   
H355     H      0.173000000000     0.729760000000     0.739900000000     0.195654   
H356     H      0.239720000000     0.803360000000     0.661440000000     0.195576   
H357     H      0.219660000000     0.838380000000     0.869940000000     0.129317   
H358     H      0.198530000000     0.772920000000     0.875710000000     0.197342   
H359     H      0.215120000000     0.680160000000     0.773740000000     0.135833   
H360     H      0.197030000000     0.674990000000     0.704240000000     0.187898   
H361     H      0.195870000000     0.772490000000     0.609500000000     0.139678   
H362     H      0.217810000000     0.837070000000     0.604010000000     0.19019    
H363     H      0.215420000000     0.926940000000     0.705660000000     0.137037   
H364     H      0.196310000000     0.931930000000     0.774630000000     0.188629   
H365     H      0.212680000000     0.674240000000     0.664360000000     0.202605   
H366     H      0.197360000000     0.869260000000     0.601910000000     0.203059   
H367     H      0.213650000000     0.933270000000     0.812730000000     0.202278   
H368     H      0.215670000000     0.736710000000     0.877100000000     0.201246   
H369     H      0.096660000000     0.724500000000     0.693920000000     0.0430716  
H370     H      0.140450000000     0.674710000000     0.640000000000     0.0412652  
H371     H      0.111390000000     0.644260000000     0.577590000000     0.0433133  
H372     H      0.051150000000     0.712820000000     0.651820000000     0.043232   
H373     H      0.023640000000     0.648950000000     0.626510000000     0.0402817  
H374     H      0.065890000000     0.632580000000     0.535500000000     0.043315   
H375     H      0.095380000000     0.757630000000     0.656470000000     0.0444129  
H376     H      0.138900000000     0.708140000000     0.602890000000     0.0437255  
H377     H      0.067160000000     0.599450000000     0.572950000000     0.0443099  
H378     H      0.022090000000     0.682380000000     0.589410000000     0.0436714  
H379     H      0.095380000000     0.757610000000     0.822940000000     0.0445869  
H380     H      0.138890000000     0.708110000000     0.876530000000     0.0438786  
H381     H      0.111380000000     0.644230000000     0.901800000000     0.0436694  
H382     H      0.051160000000     0.712790000000     0.827540000000     0.0431909  
H383     H      0.022080000000     0.682330000000     0.889910000000     0.0411534  
H384     H      0.067160000000     0.599430000000     0.906420000000     0.0444505  
H385     H      0.096670000000     0.724490000000     0.785480000000     0.0432154  
H386     H      0.140450000000     0.674690000000     0.839410000000     0.0450272  
H387     H      0.065870000000     0.632560000000     0.943860000000     0.0432024  
H388     H      0.023640000000     0.648900000000     0.852810000000     0.0434776  
H389     H      0.023640000000     0.958250000000     0.626600000000     0.0434708  
H390     H      0.067140000000     0.507640000000     0.572990000000     0.0444323  
H391     H      0.111340000000     0.962740000000     0.577540000000     0.0434197  
H392     H      0.051130000000     0.894300000000     0.651840000000     0.0431901  
H393     H      0.096630000000     0.882510000000     0.693850000000     0.0432288  
H394     H      0.138850000000     0.898790000000     0.602780000000     0.0405479  
H395     H      0.022050000000     0.924820000000     0.589490000000     0.041143   
H396     H      0.065840000000     0.974520000000     0.535530000000     0.0432016  
H397     H      0.140420000000     0.932240000000     0.639880000000     0.0437942  
H398     H      0.095350000000     0.849400000000     0.656390000000     0.0443311  
H399     H      0.389740000000     0.651930000000     0.623550000000     0.0413983  
H400     H      0.346050000000     0.600280000000     0.571950000000     0.0429705  
H401     H      0.301150000000     0.642880000000     0.579160000000     0.0430742  
H402     H      0.361390000000     0.714150000000     0.650370000000     0.0434306  
H403     H      0.316420000000     0.723510000000     0.694940000000     0.0444536  
H404     H      0.272800000000     0.705100000000     0.605970000000     0.0429677  
H405     H      0.389740000000     0.685110000000     0.586110000000     0.0443899  
H406     H      0.346120000000     0.633550000000     0.534580000000     0.0444961  
H407     H      0.272780000000     0.671950000000     0.643430000000     0.0408288  
H408     H      0.316500000000     0.756750000000     0.657560000000     0.0431375  
H409     H      0.346180000000     0.973440000000     0.945000000000     0.0444125  
H410     H      0.389830000000     0.921990000000     0.893310000000     0.0443769  
H411     H      0.361410000000     0.892860000000     0.829140000000     0.0434787  
H412     H      0.301140000000     0.963920000000     0.900600000000     0.0428789  
H413     H      0.272870000000     0.901570000000     0.873840000000     0.0403867  
H414     H      0.316410000000     0.883420000000     0.784710000000     0.0445206  
H415     H      0.345970000000     0.506680000000     0.907600000000     0.0429122  
H416     H      0.389690000000     0.955170000000     0.855860000000     0.041429   
H417     H      0.316570000000     0.850130000000     0.822050000000     0.0427541  
H418     H      0.272730000000     0.934810000000     0.836470000000     0.0402169  
H419     H      0.389750000000     0.685110000000     0.893330000000     0.040764   
H420     H      0.346120000000     0.633630000000     0.944910000000     0.0443134  
H421     H      0.301130000000     0.643030000000     0.900380000000     0.0430592  
H422     H      0.361390000000     0.714170000000     0.829070000000     0.0431014  
H423     H      0.316510000000     0.756830000000     0.821880000000     0.0427368  
H424     H      0.272760000000     0.672080000000     0.836120000000     0.0433286  
H425     H      0.389710000000     0.651930000000     0.855890000000     0.0430206  
H426     H      0.346000000000     0.600370000000     0.907540000000     0.0430904  
H427     H      0.272800000000     0.705280000000     0.873550000000     0.0383686  
H428     H      0.316400000000     0.723550000000     0.784530000000     0.0445211  
H429     H      0.096640000000     0.882560000000     0.785530000000     0.043111   
H430     H      0.140430000000     0.932340000000     0.839410000000     0.0416644  
H431     H      0.111370000000     0.962830000000     0.901800000000     0.0434937  
H432     H      0.051150000000     0.894280000000     0.827620000000     0.0432691  
H433     H      0.023630000000     0.958200000000     0.852890000000     0.0402994  
H434     H      0.065890000000     0.974560000000     0.943880000000     0.0432927  
H435     H      0.095390000000     0.849450000000     0.822990000000     0.0448428  
H436     H      0.138890000000     0.898930000000     0.876540000000     0.0460816  
H437     H      0.067140000000     0.507670000000     0.906420000000     0.0443067  
H438     H      0.022100000000     0.924770000000     0.890000000000     0.0436798  
H439     H      0.389770000000     0.922020000000     0.586080000000     0.0408122  
H440     H      0.346120000000     0.973520000000     0.534450000000     0.0443472  
H441     H      0.301110000000     0.964090000000     0.578910000000     0.0433412  
H442     H      0.361370000000     0.892930000000     0.650280000000     0.0431921  
H443     H      0.316510000000     0.850260000000     0.657400000000     0.0429932  
H444     H      0.272720000000     0.935010000000     0.643120000000     0.0443867  
H445     H      0.389680000000     0.955190000000     0.623520000000     0.0430697  
H446     H      0.345960000000     0.506770000000     0.571830000000     0.0430926  
H447     H      0.272800000000     0.901820000000     0.605690000000     0.0413237  
H448     H      0.316380000000     0.883530000000     0.694760000000     0.044607   
N49      N      0.036380000000     0.632550000000     0.573160000000    -0.166457   
N50      N      0.126150000000     0.724540000000     0.656240000000    -0.166473   
N51      N      0.036370000000     0.632510000000     0.906170000000    -0.166318   
N52      N      0.126160000000     0.724530000000     0.823170000000    -0.165682   
N53      N      0.126120000000     0.882450000000     0.656150000000    -0.166469   
N54      N      0.036360000000     0.974600000000     0.573240000000    -0.166476   
N55      N      0.286310000000     0.722520000000     0.658500000000    -0.166493   
N56      N      0.376220000000     0.634540000000     0.571010000000    -0.166542   
N57      N      0.286340000000     0.884310000000     0.821210000000    -0.167146   
N58      N      0.376220000000     0.972530000000     0.908450000000    -0.166528   
N59      N      0.286310000000     0.722620000000     0.820990000000    -0.167128   
N60      N      0.376200000000     0.634560000000     0.908440000000    -0.166467   
N61      N      0.036380000000     0.974580000000     0.906230000000    -0.166525   
N62      N      0.126150000000     0.882530000000     0.823200000000    -0.165905   
N63      N      0.286290000000     0.884470000000     0.658280000000    -0.166411   
N64      N      0.376200000000     0.972580000000     0.570950000000    -0.166427   
O193     O      0.415880000000     0.982140000000     0.917420000000    -0.376284   
O194     O      0.388360000000     0.514430000000     0.949490000000    -0.371824   
O195     O      0.496700000000     0.984210000000     0.564240000000    -0.377072   
O196     O      0.024200000000     0.515100000000     0.530650000000    -0.37158    
O197     O      0.415850000000     0.982180000000     0.561970000000    -0.374533   
O198     O      0.388330000000     0.514430000000     0.529850000000    -0.371467   
O199     O      0.496730000000     0.984160000000     0.915240000000    -0.375622   
O200     O      0.024230000000     0.515150000000     0.948740000000    -0.3716     
O201     O      0.457290000000     0.936920000000     0.934330000000    -0.347949   
O202     O      0.455220000000     0.503500000000     0.866540000000    -0.526672   
O203     O      0.457380000000     0.937420000000     0.545180000000    -0.524153   
O204     O      0.455220000000     0.503640000000     0.613360000000    -0.351825   
O205     O      0.433270000000     0.500260000000     0.989610000000    -0.498706   
O206     O      0.479230000000     0.500230000000     0.989620000000    -0.63379    
O207     O      0.496710000000     0.622930000000     0.915150000000    -0.376827   
O208     O      0.024220000000     0.592020000000     0.948770000000    -0.37139    
O209     O      0.415870000000     0.624970000000     0.561980000000    -0.376487   
O210     O      0.388360000000     0.592670000000     0.529920000000    -0.371889   
O211     O      0.496730000000     0.622980000000     0.564160000000    -0.375701   
O212     O      0.024240000000     0.591980000000     0.530650000000    -0.371258   
O213     O      0.415860000000     0.624960000000     0.917450000000    -0.374505   
O214     O      0.388340000000     0.592710000000     0.949550000000    -0.371724   
O215     O      0.457320000000     0.669710000000     0.934210000000    -0.524305   
O216     O      0.455240000000     0.603480000000     0.866040000000    -0.352013   
O217     O      0.457210000000     0.670210000000     0.545090000000    -0.348092   
O218     O      0.455240000000     0.603600000000     0.612860000000    -0.527005   
O219     O      0.479220000000     0.606920000000     0.989790000000    -0.634061   
O220     O      0.433270000000     0.606850000000     0.989790000000    -0.49839    
O221     O      0.479450000000     0.553630000000     0.933050000000    -0.498515   
O222     O      0.433180000000     0.553500000000     0.546380000000    -0.633361   
O223     O      0.433180000000     0.553650000000     0.933020000000    -0.633473   
O224     O      0.479450000000     0.553480000000     0.546340000000    -0.498552   
O225     O      0.246630000000     0.874900000000     0.667290000000    -0.376309   
O226     O      0.274160000000     0.842650000000     0.699420000000    -0.371563   
O227     O      0.165800000000     0.872950000000     0.814170000000    -0.370667   
O228     O      0.138300000000     0.842020000000     0.780610000000    -0.371153   
O229     O      0.246680000000     0.874780000000     0.812150000000    -0.381419   
O230     O      0.274200000000     0.842650000000     0.779890000000    -0.372042   
O231     O      0.165780000000     0.872870000000     0.665160000000    -0.375605   
O232     O      0.138280000000     0.841920000000     0.698710000000    -0.371534   
O233     O      0.205220000000     0.920150000000     0.684190000000    -0.348063   
O234     O      0.207270000000     0.853520000000     0.616460000000    -0.526951   
O235     O      0.205310000000     0.919850000000     0.793820000000    -0.524807   
O236     O      0.206720000000     0.855090000000     0.863350000000    -0.345153   
O237     O      0.229260000000     0.856900000000     0.739520000000    -0.498423   
O238     O      0.183270000000     0.856910000000     0.739530000000    -0.633133   
O239     O      0.165810000000     0.734130000000     0.665230000000    -0.376934   
O240     O      0.138310000000     0.765060000000     0.698810000000    -0.371637   
O241     O      0.246660000000     0.732230000000     0.811990000000    -0.380093   
O242     O      0.274180000000     0.764480000000     0.779900000000    -0.371999   
O243     O      0.165830000000     0.734130000000     0.814210000000    -0.370792   
O244     O      0.138310000000     0.765130000000     0.780700000000    -0.370776   
O245     O      0.246660000000     0.732110000000     0.667520000000    -0.374725   
O246     O      0.274180000000     0.764400000000     0.699570000000    -0.371647   
O247     O      0.205210000000     0.687360000000     0.684370000000    -0.524338   
O248     O      0.207270000000     0.753490000000     0.616100000000    -0.351895   
O249     O      0.205400000000     0.687030000000     0.795710000000    -0.347643   
O250     O      0.207020000000     0.754270000000     0.862910000000    -0.529474   
O251     O      0.183300000000     0.750210000000     0.739860000000    -0.634287   
O252     O      0.229240000000     0.750300000000     0.739850000000    -0.498464   
O253     O      0.183070000000     0.803440000000     0.683050000000    -0.498563   
O254     O      0.229340000000     0.803730000000     0.796380000000    -0.633462   
O255     O      0.229330000000     0.803420000000     0.683010000000    -0.633667   
O256     O      0.183100000000     0.803770000000     0.796330000000    -0.496166   
Zr37     Zr     0.456280000000     0.501160000000     0.933880000000     1.37578    
Zr38     Zr     0.456280000000     0.501020000000     0.545360000000     1.37576    
Zr39     Zr     0.456280000000     0.606110000000     0.934040000000     1.37573    
Zr40     Zr     0.456280000000     0.605970000000     0.545530000000     1.37595    
Zr41     Zr     0.410840000000     0.553560000000     0.989690000000     1.37884    
Zr42     Zr     0.001740000000     0.553570000000     0.989700000000     1.37726    
Zr43     Zr     0.206230000000     0.855910000000     0.683800000000     1.37594    
Zr44     Zr     0.206240000000     0.856250000000     0.795240000000     1.3753     
Zr45     Zr     0.206240000000     0.750960000000     0.684110000000     1.37588    
Zr46     Zr     0.206240000000     0.751270000000     0.795600000000     1.3766     
Zr47     Zr     0.251680000000     0.803580000000     0.739680000000     1.37861    
Zr48     Zr     0.160790000000     0.803550000000     0.739700000000     1.37876    
C385     C      0.894160000000     0.490360000000     0.425800000000     0.394302   
C386     C      0.518410000000     0.492070000000     0.055480000000     0.394285   
C387     C      0.894140000000     0.490380000000     0.053570000000     0.395336   
C388     C      0.518440000000     0.492070000000     0.423970000000     0.395075   
C389     C      0.518420000000     0.115050000000     0.423920000000     0.393676   
C390     C      0.894160000000     0.116740000000     0.053620000000     0.394562   
C391     C      0.518440000000     0.115070000000     0.055430000000     0.394844   
C392     C      0.894140000000     0.116760000000     0.425840000000     0.3957     
C393     C      0.768350000000     0.366680000000     0.175680000000     0.39421    
C394     C      0.644090000000     0.365060000000     0.305430000000     0.394216   
C395     C      0.768400000000     0.366600000000     0.303730000000     0.395247   
C396     C      0.644070000000     0.364970000000     0.173900000000     0.395187   
C397     C      0.644100000000     0.242010000000     0.173990000000     0.394011   
C398     C      0.768370000000     0.240430000000     0.303600000000     0.395481   
C399     C      0.644110000000     0.242030000000     0.305470000000     0.393741   
C400     C      0.768370000000     0.240320000000     0.175890000000     0.39574    
C401     C      0.532530000000     0.160100000000     0.101370000000    -0.0239289  
C402     C      0.630000000000     0.196980000000     0.128040000000    -0.0238826  
C403     C      0.600710000000     0.230290000000     0.164100000000    -0.0236033  
C404     C      0.588730000000     0.204330000000     0.139390000000     0.0130012  
C405     C      0.605370000000     0.185380000000     0.118900000000     0.0130944  
C406     C      0.598380000000     0.159060000000     0.093630000000    -0.0664505  
C407     C      0.561830000000     0.126790000000     0.065310000000    -0.0235601  
C408     C      0.564150000000     0.198010000000     0.135790000000    -0.0665411  
C409     C      0.573810000000     0.152750000000     0.090020000000     0.0130227  
C410     C      0.557160000000     0.171690000000     0.110520000000     0.0132155  
C411     C      0.532530000000     0.160060000000     0.377950000000    -0.0239103  
C412     C      0.630010000000     0.196960000000     0.351370000000    -0.024431   
C413     C      0.600720000000     0.230270000000     0.315300000000    -0.0235403  
C414     C      0.588730000000     0.204300000000     0.339980000000     0.0129281  
C415     C      0.605370000000     0.185360000000     0.360500000000     0.0136816  
C416     C      0.598380000000     0.159040000000     0.385760000000    -0.066635   
C417     C      0.561820000000     0.126760000000     0.414040000000    -0.0237906  
C418     C      0.564160000000     0.197980000000     0.343570000000    -0.06644    
C419     C      0.573810000000     0.152720000000     0.389340000000     0.0131867  
C420     C      0.557160000000     0.171660000000     0.368830000000     0.0130162  
C421     C      0.600680000000     0.376730000000     0.164030000000    -0.0236211  
C422     C      0.561800000000     0.480310000000     0.065350000000    -0.0236738  
C423     C      0.532510000000     0.447060000000     0.101440000000    -0.0238645  
C424     C      0.557130000000     0.435420000000     0.110550000000     0.0130676  
C425     C      0.573780000000     0.454320000000     0.090020000000     0.0131108  
C426     C      0.598350000000     0.447960000000     0.093580000000    -0.0665784  
C427     C      0.629970000000     0.409980000000     0.127940000000    -0.0238924  
C428     C      0.564130000000     0.409070000000     0.135790000000    -0.0665852  
C429     C      0.605340000000     0.421620000000     0.118830000000     0.0132599  
C430     C      0.588700000000     0.402700000000     0.139350000000     0.0130605  
C431     C      0.811770000000     0.229210000000     0.165320000000    -0.0235688  
C432     C      0.850760000000     0.127840000000     0.064200000000    -0.0235433  
C433     C      0.880060000000     0.162460000000     0.098790000000    -0.0239367  
C434     C      0.855400000000     0.172920000000     0.109190000000     0.0132709  
C435     C      0.838750000000     0.153240000000     0.089510000000     0.0129693  
C436     C      0.814150000000     0.158260000000     0.094530000000    -0.0666166  
C437     C      0.782460000000     0.194580000000     0.130730000000    -0.023753   
C438     C      0.848380000000     0.198760000000     0.135000000000    -0.0666843  
C439     C      0.807130000000     0.184100000000     0.120350000000     0.0130624  
C440     C      0.823780000000     0.203800000000     0.140020000000     0.0131816  
C441     C      0.782480000000     0.412180000000     0.349070000000    -0.0235322  
C442     C      0.880080000000     0.444610000000     0.380660000000    -0.0239445  
C443     C      0.850760000000     0.479140000000     0.415350000000    -0.023541   
C444     C      0.838760000000     0.453690000000     0.390100000000     0.0128184  
C445     C      0.855420000000     0.434060000000     0.370360000000     0.0132505  
C446     C      0.848400000000     0.408200000000     0.344570000000    -0.0667065  
C447     C      0.811800000000     0.377670000000     0.314330000000    -0.0236219  
C448     C      0.814150000000     0.448570000000     0.385180000000    -0.0664854  
C449     C      0.823800000000     0.403080000000     0.339640000000     0.0131074  
C450     C      0.807140000000     0.422700000000     0.359400000000     0.0126894  
C451     C      0.811770000000     0.229280000000     0.314150000000    -0.0234711  
C452     C      0.850750000000     0.127910000000     0.415290000000    -0.0233982  
C453     C      0.880050000000     0.162480000000     0.380660000000    -0.0237155  
C454     C      0.855400000000     0.172970000000     0.370290000000     0.0131327  
C455     C      0.838740000000     0.153320000000     0.389980000000     0.0130051  
C456     C      0.814140000000     0.158390000000     0.384990000000    -0.0666005  
C457     C      0.782460000000     0.194710000000     0.348790000000    -0.0235457  
C458     C      0.848380000000     0.198810000000     0.344470000000    -0.0666508  
C459     C      0.807120000000     0.184230000000     0.359170000000     0.0128587  
C460     C      0.823780000000     0.203880000000     0.339470000000     0.012998   
C461     C      0.532530000000     0.447030000000     0.378040000000    -0.0239155  
C462     C      0.629990000000     0.410080000000     0.351390000000    -0.0239991  
C463     C      0.600700000000     0.376780000000     0.315340000000    -0.0237054  
C464     C      0.588720000000     0.402750000000     0.340030000000     0.0131366  
C465     C      0.605370000000     0.421690000000     0.360520000000     0.0133793  
C466     C      0.598370000000     0.448030000000     0.385780000000    -0.0665992  
C467     C      0.561830000000     0.480340000000     0.414070000000    -0.0236182  
C468     C      0.564150000000     0.409080000000     0.343630000000    -0.0665532  
C469     C      0.573810000000     0.454360000000     0.389380000000     0.0131647  
C470     C      0.557160000000     0.435420000000     0.368890000000     0.013206   
C471     C      0.811750000000     0.377810000000     0.165140000000    -0.0235891  
C472     C      0.850730000000     0.479230000000     0.064080000000    -0.0235758  
C473     C      0.880050000000     0.444650000000     0.098750000000    -0.0238576  
C474     C      0.855380000000     0.434140000000     0.109080000000     0.0131707  
C475     C      0.838730000000     0.453800000000     0.089360000000     0.0130568  
C476     C      0.814120000000     0.448720000000     0.094330000000    -0.0665521  
C477     C      0.782450000000     0.412370000000     0.130460000000    -0.0239298  
C478     C      0.848370000000     0.408290000000     0.134870000000    -0.0666232  
C479     C      0.807100000000     0.422870000000     0.120120000000     0.0131636  
C480     C      0.823760000000     0.403210000000     0.139830000000     0.0129701  
H449     H      0.989550000000     0.479780000000     0.489600000000     0.195728   
H450     H      0.922780000000     0.053470000000     0.067950000000     0.195365   
H451     H      0.989530000000     0.127360000000     0.489800000000     0.195872   
H452     H      0.922780000000     0.053680000000     0.411450000000     0.195404   
H453     H      0.966550000000     0.022720000000     0.119940000000     0.139667   
H454     H      0.965300000000     0.119120000000     0.127420000000     0.202943   
H455     H      0.947210000000     0.176960000000     0.023390000000     0.136455   
H456     H      0.965540000000     0.182110000000     0.454020000000     0.188192   
H457     H      0.966640000000     0.084470000000     0.359470000000     0.13982    
H458     H      0.944650000000     0.019900000000     0.354070000000     0.190351   
H459     H      0.947310000000     0.430170000000     0.456040000000     0.136543   
H460     H      0.965660000000     0.425030000000     0.025420000000     0.188446   
H461     H      0.949810000000     0.182800000000     0.414200000000     0.202472   
H462     H      0.965160000000     0.487790000000     0.351980000000     0.202934   
H463     H      0.949820000000     0.424310000000     0.065120000000     0.202646   
H464     H      0.944550000000     0.087390000000     0.125330000000     0.190223   
H465     H      0.672930000000     0.377340000000     0.239480000000     0.195495   
H466     H      0.739770000000     0.303700000000     0.317910000000     0.192628   
H467     H      0.673000000000     0.229760000000     0.239900000000     0.195625   
H468     H      0.739720000000     0.303360000000     0.161440000000     0.195562   
H469     H      0.719660000000     0.338380000000     0.369940000000     0.129321   
H470     H      0.698520000000     0.272920000000     0.375710000000     0.197317   
H471     H      0.715120000000     0.180160000000     0.273740000000     0.135824   
H472     H      0.697030000000     0.174990000000     0.204240000000     0.188154   
H473     H      0.695870000000     0.272490000000     0.109500000000     0.139697   
H474     H      0.717810000000     0.337070000000     0.104010000000     0.190209   
H475     H      0.715420000000     0.426940000000     0.205660000000     0.137031   
H476     H      0.696310000000     0.431930000000     0.274630000000     0.188619   
H477     H      0.712680000000     0.174240000000     0.164360000000     0.202645   
H478     H      0.697360000000     0.369260000000     0.101910000000     0.203072   
H479     H      0.713650000000     0.433270000000     0.312730000000     0.202276   
H480     H      0.715670000000     0.236710000000     0.377100000000     0.201087   
H481     H      0.596660000000     0.224500000000     0.193920000000     0.0431072  
H482     H      0.640450000000     0.174710000000     0.140000000000     0.0412357  
H483     H      0.611390000000     0.144250000000     0.077590000000     0.0433108  
H484     H      0.551150000000     0.212820000000     0.151820000000     0.0433012  
H485     H      0.523630000000     0.148940000000     0.126510000000     0.0404125  
H486     H      0.565890000000     0.132580000000     0.035500000000     0.0433773  
H487     H      0.595370000000     0.257620000000     0.156470000000     0.0444668  
H488     H      0.638900000000     0.208140000000     0.102890000000     0.0437238  
H489     H      0.567160000000     0.099450000000     0.072950000000     0.0443283  
H490     H      0.522090000000     0.182380000000     0.089410000000     0.0438322  
H491     H      0.595380000000     0.257600000000     0.322940000000     0.0446307  
H492     H      0.638890000000     0.208110000000     0.376530000000     0.0438983  
H493     H      0.611380000000     0.144230000000     0.401800000000     0.0436917  
H494     H      0.551160000000     0.212790000000     0.327540000000     0.0432527  
H495     H      0.522080000000     0.182330000000     0.389910000000     0.0412866  
H496     H      0.567150000000     0.099430000000     0.406420000000     0.0444992  
H497     H      0.596670000000     0.224490000000     0.285480000000     0.0432407  
H498     H      0.640450000000     0.174690000000     0.339410000000     0.0450288  
H499     H      0.565870000000     0.132560000000     0.443860000000     0.0432623  
H500     H      0.523640000000     0.148890000000     0.352800000000     0.0435759  
H501     H      0.523630000000     0.458240000000     0.126600000000     0.0435709  
H502     H      0.567140000000     0.007640000000     0.072980000000     0.0444004  
H503     H      0.611350000000     0.462740000000     0.077540000000     0.0434011  
H504     H      0.551130000000     0.394300000000     0.151830000000     0.0432727  
H505     H      0.596640000000     0.382510000000     0.193850000000     0.0432662  
H506     H      0.638850000000     0.398790000000     0.102780000000     0.0405799  
H507     H      0.522050000000     0.424810000000     0.089500000000     0.0412758  
H508     H      0.565840000000     0.474520000000     0.035530000000     0.0432565  
H509     H      0.640420000000     0.432230000000     0.139880000000     0.0438243  
H510     H      0.595350000000     0.349400000000     0.156390000000     0.0443657  
H511     H      0.889740000000     0.151930000000     0.123550000000     0.0414356  
H512     H      0.846050000000     0.100280000000     0.071950000000     0.0429627  
H513     H      0.801150000000     0.142880000000     0.079160000000     0.0431068  
H514     H      0.861380000000     0.214150000000     0.150370000000     0.0434989  
H515     H      0.816410000000     0.223510000000     0.194940000000     0.0444875  
H516     H      0.772800000000     0.205100000000     0.105970000000     0.0429607  
H517     H      0.889740000000     0.185100000000     0.086110000000     0.0444626  
H518     H      0.846110000000     0.133540000000     0.034580000000     0.0445172  
H519     H      0.772780000000     0.171940000000     0.143430000000     0.0407899  
H520     H      0.816490000000     0.256750000000     0.157560000000     0.0431794  
H521     H      0.846180000000     0.473440000000     0.444990000000     0.0444594  
H522     H      0.889830000000     0.421990000000     0.393310000000     0.0444144  
H523     H      0.861410000000     0.392860000000     0.329140000000     0.0434669  
H524     H      0.801140000000     0.463920000000     0.400610000000     0.0428963  
H525     H      0.772870000000     0.401570000000     0.373840000000     0.0403819  
H526     H      0.816410000000     0.383420000000     0.284710000000     0.044538   
H527     H      0.845970000000     0.006680000000     0.407600000000     0.0428882  
H528     H      0.889690000000     0.455170000000     0.355860000000     0.0414402  
H529     H      0.816570000000     0.350130000000     0.322050000000     0.0427793  
H530     H      0.772730000000     0.434820000000     0.336470000000     0.0401861  
H531     H      0.889750000000     0.185110000000     0.393330000000     0.0407852  
H532     H      0.846120000000     0.133630000000     0.444910000000     0.0443568  
H533     H      0.801130000000     0.143030000000     0.400370000000     0.0430912  
H534     H      0.861380000000     0.214170000000     0.329070000000     0.0431519  
H535     H      0.816510000000     0.256830000000     0.321880000000     0.0427368  
H536     H      0.772760000000     0.172080000000     0.336120000000     0.0433574  
H537     H      0.889710000000     0.151930000000     0.355890000000     0.0430277  
H538     H      0.846000000000     0.100360000000     0.407540000000     0.0430882  
H539     H      0.772800000000     0.205280000000     0.373550000000     0.0383997  
H540     H      0.816400000000     0.223550000000     0.284520000000     0.0445102  
H541     H      0.596640000000     0.382560000000     0.285530000000     0.0431085  
H542     H      0.640430000000     0.432340000000     0.339410000000     0.0416713  
H543     H      0.611370000000     0.462830000000     0.401800000000     0.0435162  
H544     H      0.551150000000     0.394280000000     0.327610000000     0.0433276  
H545     H      0.523630000000     0.458200000000     0.352890000000     0.0404442  
H546     H      0.565890000000     0.474560000000     0.443890000000     0.0433605  
H547     H      0.595390000000     0.349450000000     0.322990000000     0.0448541  
H548     H      0.638890000000     0.398930000000     0.376540000000     0.0461068  
H549     H      0.567140000000     0.007670000000     0.406420000000     0.0443188  
H550     H      0.522100000000     0.424770000000     0.390000000000     0.0438454  
H551     H      0.889770000000     0.422020000000     0.086080000000     0.0408415  
H552     H      0.846130000000     0.473520000000     0.034450000000     0.0444647  
H553     H      0.801110000000     0.464090000000     0.078910000000     0.0433676  
H554     H      0.861370000000     0.392930000000     0.150280000000     0.0431966  
H555     H      0.816510000000     0.350260000000     0.157400000000     0.0429419  
H556     H      0.772720000000     0.435010000000     0.143110000000     0.0443596  
H557     H      0.889680000000     0.455200000000     0.123530000000     0.0430775  
H558     H      0.845960000000     0.006770000000     0.071830000000     0.0431142  
H559     H      0.772810000000     0.401810000000     0.105690000000     0.0413298  
H560     H      0.816370000000     0.383530000000     0.194760000000     0.0445712  
N65      N      0.536380000000     0.132550000000     0.073160000000    -0.166504   
N66      N      0.626150000000     0.224540000000     0.156240000000    -0.166416   
N67      N      0.536370000000     0.132510000000     0.406170000000    -0.166352   
N68      N      0.626160000000     0.224530000000     0.323170000000    -0.165675   
N69      N      0.626130000000     0.382450000000     0.156150000000    -0.166573   
N70      N      0.536360000000     0.474600000000     0.073230000000    -0.166533   
N71      N      0.786310000000     0.222520000000     0.158490000000    -0.16649    
N72      N      0.876220000000     0.134530000000     0.071010000000    -0.166581   
N73      N      0.786330000000     0.384310000000     0.321210000000    -0.167225   
N74      N      0.876220000000     0.472530000000     0.408450000000    -0.166466   
N75      N      0.786310000000     0.222620000000     0.320990000000    -0.167094   
N76      N      0.876210000000     0.134560000000     0.408440000000    -0.166578   
N77      N      0.536380000000     0.474590000000     0.406230000000    -0.166582   
N78      N      0.626140000000     0.382530000000     0.323200000000    -0.16583    
N79      N      0.786290000000     0.384470000000     0.158280000000    -0.166433   
N80      N      0.876200000000     0.472580000000     0.070960000000    -0.166334   
O257     O      0.915880000000     0.482140000000     0.417420000000    -0.376274   
O258     O      0.888360000000     0.014430000000     0.449500000000    -0.371739   
O259     O      0.996700000000     0.484210000000     0.064240000000    -0.376473   
O260     O      0.524200000000     0.015100000000     0.030640000000    -0.371677   
O261     O      0.915850000000     0.482180000000     0.061970000000    -0.374491   
O262     O      0.888330000000     0.014430000000     0.029840000000    -0.371352   
O263     O      0.996730000000     0.484170000000     0.415240000000    -0.37511    
O264     O      0.524230000000     0.015150000000     0.448750000000    -0.371604   
O265     O      0.957290000000     0.436920000000     0.434330000000    -0.347946   
O266     O      0.955220000000     0.003510000000     0.366530000000    -0.526773   
O267     O      0.957380000000     0.437410000000     0.045180000000    -0.524469   
O268     O      0.955220000000     0.003640000000     0.113360000000    -0.351745   
O269     O      0.933270000000     0.000260000000     0.489610000000    -0.498574   
O270     O      0.979230000000     0.000220000000     0.489620000000    -0.633632   
O271     O      0.996710000000     0.122930000000     0.415150000000    -0.376224   
O272     O      0.524220000000     0.092010000000     0.448770000000    -0.371366   
O273     O      0.915870000000     0.124970000000     0.061980000000    -0.376476   
O274     O      0.888360000000     0.092670000000     0.029920000000    -0.371729   
O275     O      0.996730000000     0.122980000000     0.064160000000    -0.375096   
O276     O      0.524240000000     0.091980000000     0.030650000000    -0.37127    
O277     O      0.915860000000     0.124950000000     0.417450000000    -0.374613   
O278     O      0.888340000000     0.092720000000     0.449550000000    -0.37182    
O279     O      0.957320000000     0.169710000000     0.434210000000    -0.524135   
O280     O      0.955240000000     0.103470000000     0.366040000000    -0.351967   
O281     O      0.957210000000     0.170200000000     0.045100000000    -0.347787   
O282     O      0.955240000000     0.103600000000     0.112860000000    -0.526887   
O283     O      0.979220000000     0.106920000000     0.489790000000    -0.633822   
O284     O      0.933270000000     0.106850000000     0.489790000000    -0.498306   
O285     O      0.979450000000     0.053620000000     0.433050000000    -0.49829    
O286     O      0.933180000000     0.053500000000     0.046380000000    -0.633303   
O287     O      0.933190000000     0.053650000000     0.433010000000    -0.633528   
O288     O      0.979450000000     0.053480000000     0.046340000000    -0.498227   
O289     O      0.746630000000     0.374890000000     0.167290000000    -0.376362   
O290     O      0.774160000000     0.342650000000     0.199420000000    -0.371672   
O291     O      0.665800000000     0.372950000000     0.314170000000    -0.370652   
O292     O      0.638300000000     0.342020000000     0.280610000000    -0.371163   
O293     O      0.746680000000     0.374780000000     0.312150000000    -0.381441   
O294     O      0.774200000000     0.342650000000     0.279890000000    -0.372073   
O295     O      0.665770000000     0.372870000000     0.165160000000    -0.375738   
O296     O      0.638280000000     0.341920000000     0.198710000000    -0.371597   
O297     O      0.705220000000     0.420150000000     0.184190000000    -0.348077   
O298     O      0.707270000000     0.353520000000     0.116460000000    -0.526956   
O299     O      0.705310000000     0.419850000000     0.293820000000    -0.524812   
O300     O      0.706720000000     0.355090000000     0.363340000000    -0.345189   
O301     O      0.729260000000     0.356900000000     0.239520000000    -0.498418   
O302     O      0.683270000000     0.356910000000     0.239530000000    -0.633314   
O303     O      0.665810000000     0.234130000000     0.165230000000    -0.376931   
O304     O      0.638300000000     0.265060000000     0.198810000000    -0.371546   
O305     O      0.746660000000     0.232230000000     0.311990000000    -0.38009    
O306     O      0.774180000000     0.264480000000     0.279900000000    -0.372076   
O307     O      0.665830000000     0.234130000000     0.314210000000    -0.370787   
O308     O      0.638310000000     0.265130000000     0.280700000000    -0.370814   
O309     O      0.746660000000     0.232110000000     0.167520000000    -0.374775   
O310     O      0.774180000000     0.264390000000     0.199570000000    -0.371705   
O311     O      0.705210000000     0.187350000000     0.184380000000    -0.524624   
O312     O      0.707270000000     0.253490000000     0.116100000000    -0.351891   
O313     O      0.705400000000     0.187030000000     0.295710000000    -0.347644   
O314     O      0.707010000000     0.254270000000     0.362910000000    -0.529283   
O315     O      0.683300000000     0.250210000000     0.239860000000    -0.634284   
O316     O      0.729240000000     0.250300000000     0.239850000000    -0.498457   
O317     O      0.683070000000     0.303440000000     0.183050000000    -0.498449   
O318     O      0.729340000000     0.303730000000     0.296370000000    -0.633354   
O319     O      0.729330000000     0.303420000000     0.183010000000    -0.633594   
O320     O      0.683100000000     0.303770000000     0.296330000000    -0.496215   
Zr49     Zr     0.956280000000     0.001170000000     0.433880000000     1.37585    
Zr50     Zr     0.956280000000     0.001020000000     0.045350000000     1.37595    
Zr51     Zr     0.956280000000     0.106110000000     0.434040000000     1.37582    
Zr52     Zr     0.956280000000     0.105970000000     0.045530000000     1.37624    
Zr53     Zr     0.910840000000     0.053560000000     0.489690000000     1.37893    
Zr54     Zr     0.501730000000     0.053570000000     0.489700000000     1.37867    
Zr55     Zr     0.706230000000     0.355910000000     0.183800000000     1.37593    
Zr56     Zr     0.706240000000     0.356250000000     0.295240000000     1.37536    
Zr57     Zr     0.706240000000     0.250950000000     0.184110000000     1.37582    
Zr58     Zr     0.706240000000     0.251270000000     0.295600000000     1.37656    
Zr59     Zr     0.751680000000     0.303580000000     0.239680000000     1.37868    
Zr60     Zr     0.660790000000     0.303550000000     0.239710000000     1.37873    
C481     C      0.894160000000     0.490360000000     0.925800000000     0.394417   
C482     C      0.518410000000     0.492080000000     0.555490000000     0.394239   
C483     C      0.894140000000     0.490380000000     0.553570000000     0.395498   
C484     C      0.518440000000     0.492070000000     0.923970000000     0.395185   
C485     C      0.518420000000     0.115050000000     0.923920000000     0.393666   
C486     C      0.894160000000     0.116740000000     0.553610000000     0.3946     
C487     C      0.518440000000     0.115070000000     0.555430000000     0.394847   
C488     C      0.894140000000     0.116760000000     0.925840000000     0.395581   
C489     C      0.768350000000     0.366680000000     0.675680000000     0.394211   
C490     C      0.644090000000     0.365060000000     0.805430000000     0.394201   
C491     C      0.768400000000     0.366600000000     0.803730000000     0.395242   
C492     C      0.644070000000     0.364970000000     0.673900000000     0.395083   
C493     C      0.644100000000     0.242010000000     0.673980000000     0.393988   
C494     C      0.768370000000     0.240430000000     0.803600000000     0.395474   
C495     C      0.644110000000     0.242030000000     0.805470000000     0.393728   
C496     C      0.768370000000     0.240320000000     0.675890000000     0.395782   
C497     C      0.532530000000     0.160100000000     0.601370000000    -0.023927   
C498     C      0.630010000000     0.196980000000     0.628040000000    -0.0239509  
C499     C      0.600710000000     0.230280000000     0.664100000000    -0.0235545  
C500     C      0.588730000000     0.204330000000     0.639400000000     0.0129766  
C501     C      0.605370000000     0.185380000000     0.618890000000     0.0131149  
C502     C      0.598380000000     0.159060000000     0.593630000000    -0.0664661  
C503     C      0.561830000000     0.126790000000     0.565320000000    -0.0235155  
C504     C      0.564150000000     0.198010000000     0.635790000000    -0.0665355  
C505     C      0.573810000000     0.152750000000     0.590020000000     0.0130021  
C506     C      0.557160000000     0.171690000000     0.610520000000     0.0132096  
C507     C      0.532530000000     0.160060000000     0.877950000000    -0.0239504  
C508     C      0.630010000000     0.196960000000     0.851370000000    -0.024426   
C509     C      0.600720000000     0.230270000000     0.815300000000    -0.0235439  
C510     C      0.588730000000     0.204300000000     0.839980000000     0.0129327  
C511     C      0.605370000000     0.185360000000     0.860500000000     0.0136676  
C512     C      0.598380000000     0.159040000000     0.885760000000    -0.0666306  
C513     C      0.561820000000     0.126760000000     0.914040000000    -0.0237837  
C514     C      0.564160000000     0.197980000000     0.843570000000    -0.0664542  
C515     C      0.573810000000     0.152720000000     0.889350000000     0.0131639  
C516     C      0.557160000000     0.171660000000     0.868830000000     0.0130335  
C517     C      0.600680000000     0.376730000000     0.664030000000    -0.0235496  
C518     C      0.561800000000     0.480310000000     0.565350000000    -0.0236473  
C519     C      0.532510000000     0.447060000000     0.601450000000    -0.0239241  
C520     C      0.557130000000     0.435420000000     0.610550000000     0.0130807  
C521     C      0.573780000000     0.454320000000     0.590020000000     0.0130888  
C522     C      0.598350000000     0.447960000000     0.593580000000    -0.0665905  
C523     C      0.629970000000     0.409980000000     0.627940000000    -0.0239463  
C524     C      0.564130000000     0.409070000000     0.635790000000    -0.06656    
C525     C      0.605340000000     0.421620000000     0.618830000000     0.0132799  
C526     C      0.588700000000     0.402700000000     0.639350000000     0.0130215  
C527     C      0.811770000000     0.229210000000     0.665320000000    -0.0235393  
C528     C      0.850760000000     0.127830000000     0.564200000000    -0.0235814  
C529     C      0.880060000000     0.162460000000     0.598790000000    -0.0239338  
C530     C      0.855400000000     0.172920000000     0.609180000000     0.0132555  
C531     C      0.838750000000     0.153240000000     0.589520000000     0.01296    
C532     C      0.814150000000     0.158260000000     0.594540000000    -0.0666116  
C533     C      0.782460000000     0.194580000000     0.630730000000    -0.0237838  
C534     C      0.848380000000     0.198760000000     0.635000000000    -0.0666738  
C535     C      0.807130000000     0.184100000000     0.620350000000     0.0130726  
C536     C      0.823780000000     0.203800000000     0.640020000000     0.0131598  
C537     C      0.782480000000     0.412180000000     0.849070000000    -0.0235309  
C538     C      0.880080000000     0.444610000000     0.880660000000    -0.0239419  
C539     C      0.850760000000     0.479140000000     0.915360000000    -0.0234881  
C540     C      0.838760000000     0.453690000000     0.890100000000     0.0127976  
C541     C      0.855420000000     0.434060000000     0.870360000000     0.0132538  
C542     C      0.848400000000     0.408200000000     0.844570000000    -0.0667243  
C543     C      0.811800000000     0.377670000000     0.814330000000    -0.023625   
C544     C      0.814150000000     0.448570000000     0.885180000000    -0.0665047  
C545     C      0.823810000000     0.403080000000     0.839640000000     0.0131169  
C546     C      0.807140000000     0.422700000000     0.859400000000     0.0126836  
C547     C      0.811770000000     0.229280000000     0.814150000000    -0.0235137  
C548     C      0.850750000000     0.127910000000     0.915290000000    -0.0233176  
C549     C      0.880050000000     0.162480000000     0.880660000000    -0.0237759  
C550     C      0.855400000000     0.172970000000     0.870290000000     0.0131683  
C551     C      0.838740000000     0.153320000000     0.889980000000     0.0129452  
C552     C      0.814140000000     0.158390000000     0.884990000000    -0.0665531  
C553     C      0.782460000000     0.194710000000     0.848790000000    -0.0235331  
C554     C      0.848380000000     0.198810000000     0.844470000000    -0.0666703  
C555     C      0.807120000000     0.184230000000     0.859170000000     0.0128246  
C556     C      0.823770000000     0.203880000000     0.839470000000     0.0130133  
C557     C      0.532530000000     0.447030000000     0.878040000000    -0.0239157  
C558     C      0.629990000000     0.410080000000     0.851390000000    -0.0239961  
C559     C      0.600700000000     0.376780000000     0.815340000000    -0.023712   
C560     C      0.588720000000     0.402750000000     0.840030000000     0.0131482  
C561     C      0.605370000000     0.421690000000     0.860530000000     0.0133701  
C562     C      0.598370000000     0.448030000000     0.885780000000    -0.0666071  
C563     C      0.561830000000     0.480340000000     0.914070000000    -0.023642   
C564     C      0.564150000000     0.409080000000     0.843630000000    -0.0665867  
C565     C      0.573810000000     0.454360000000     0.889380000000     0.0131574  
C566     C      0.557160000000     0.435420000000     0.868890000000     0.0132106  
C567     C      0.811750000000     0.377810000000     0.665140000000    -0.0235957  
C568     C      0.850730000000     0.479230000000     0.564080000000    -0.0235002  
C569     C      0.880050000000     0.444650000000     0.598740000000    -0.0238581  
C570     C      0.855380000000     0.434140000000     0.609080000000     0.0131777  
C571     C      0.838730000000     0.453800000000     0.589360000000     0.0130069  
C572     C      0.814120000000     0.448730000000     0.594330000000    -0.0665098  
C573     C      0.782450000000     0.412370000000     0.630470000000    -0.0237633  
C574     C      0.848370000000     0.408290000000     0.634870000000    -0.0666422  
C575     C      0.807110000000     0.422870000000     0.620120000000     0.0130773  
C576     C      0.823760000000     0.403210000000     0.639830000000     0.0129928  
H561     H      0.989550000000     0.479780000000     0.989600000000     0.195663   
H562     H      0.922780000000     0.053470000000     0.567950000000     0.195378   
H563     H      0.989530000000     0.127360000000     0.989800000000     0.195827   
H564     H      0.922780000000     0.053680000000     0.911450000000     0.195239   
H565     H      0.966550000000     0.022720000000     0.619940000000     0.139678   
H566     H      0.965300000000     0.119120000000     0.627410000000     0.203057   
H567     H      0.947210000000     0.176960000000     0.523400000000     0.136621   
H568     H      0.965540000000     0.182110000000     0.954020000000     0.188195   
H569     H      0.966640000000     0.084470000000     0.859470000000     0.139821   
H570     H      0.944650000000     0.019900000000     0.854070000000     0.19028    
H571     H      0.947310000000     0.430170000000     0.956040000000     0.136495   
H572     H      0.965660000000     0.425030000000     0.525420000000     0.188372   
H573     H      0.949810000000     0.182800000000     0.914210000000     0.202608   
H574     H      0.965160000000     0.487790000000     0.851990000000     0.20292    
H575     H      0.949820000000     0.424310000000     0.565120000000     0.202606   
H576     H      0.944550000000     0.087390000000     0.625330000000     0.190269   
H577     H      0.672930000000     0.377340000000     0.739480000000     0.195496   
H578     H      0.739770000000     0.303700000000     0.817910000000     0.192797   
H579     H      0.673000000000     0.229760000000     0.739900000000     0.195632   
H580     H      0.739720000000     0.303360000000     0.661440000000     0.195556   
H581     H      0.719660000000     0.338380000000     0.869940000000     0.129314   
H582     H      0.698520000000     0.272920000000     0.875710000000     0.197302   
H583     H      0.715120000000     0.180160000000     0.773740000000     0.135822   
H584     H      0.697030000000     0.174990000000     0.704240000000     0.18804    
H585     H      0.695870000000     0.272490000000     0.609500000000     0.139683   
H586     H      0.717810000000     0.337070000000     0.604010000000     0.190189   
H587     H      0.715420000000     0.426940000000     0.705660000000     0.137031   
H588     H      0.696310000000     0.431930000000     0.774630000000     0.188618   
H589     H      0.712680000000     0.174240000000     0.664360000000     0.20275    
H590     H      0.697360000000     0.369260000000     0.601910000000     0.203049   
H591     H      0.713650000000     0.433270000000     0.812730000000     0.202268   
H592     H      0.715670000000     0.236710000000     0.877100000000     0.201069   
H593     H      0.596660000000     0.224500000000     0.693920000000     0.0430984  
H594     H      0.640450000000     0.174710000000     0.640000000000     0.0412579  
H595     H      0.611390000000     0.144250000000     0.577590000000     0.0432904  
H596     H      0.551150000000     0.212820000000     0.651820000000     0.0432949  
H597     H      0.523630000000     0.148940000000     0.626510000000     0.0404101  
H598     H      0.565890000000     0.132580000000     0.535500000000     0.0433141  
H599     H      0.595370000000     0.257620000000     0.656470000000     0.0444389  
H600     H      0.638900000000     0.208140000000     0.602890000000     0.0437241  
H601     H      0.567160000000     0.099450000000     0.572950000000     0.0443026  
H602     H      0.522090000000     0.182380000000     0.589410000000     0.0438143  
H603     H      0.595380000000     0.257600000000     0.822940000000     0.044626   
H604     H      0.638890000000     0.208110000000     0.876530000000     0.0438813  
H605     H      0.611380000000     0.144230000000     0.901800000000     0.04367    
H606     H      0.551160000000     0.212790000000     0.827540000000     0.0432528  
H607     H      0.522080000000     0.182330000000     0.889910000000     0.0412821  
H608     H      0.567150000000     0.099430000000     0.906420000000     0.0444887  
H609     H      0.596670000000     0.224490000000     0.785480000000     0.0432428  
H610     H      0.640450000000     0.174690000000     0.839410000000     0.0450237  
H611     H      0.565870000000     0.132560000000     0.943860000000     0.043223   
H612     H      0.523640000000     0.148890000000     0.852810000000     0.0435967  
H613     H      0.523630000000     0.458240000000     0.626600000000     0.0435938  
H614     H      0.567140000000     0.007640000000     0.572990000000     0.0443823  
H615     H      0.611350000000     0.462740000000     0.577540000000     0.0433807  
H616     H      0.551130000000     0.394300000000     0.651840000000     0.0432538  
H617     H      0.596640000000     0.382510000000     0.693850000000     0.0432492  
H618     H      0.638850000000     0.398790000000     0.602780000000     0.0405684  
H619     H      0.522050000000     0.424820000000     0.589490000000     0.0412904  
H620     H      0.565840000000     0.474520000000     0.535530000000     0.0432034  
H621     H      0.640420000000     0.432230000000     0.639880000000     0.0438263  
H622     H      0.595350000000     0.349400000000     0.656390000000     0.0443408  
H623     H      0.889740000000     0.151930000000     0.623550000000     0.0414395  
H624     H      0.846050000000     0.100280000000     0.571950000000     0.0429707  
H625     H      0.801150000000     0.142880000000     0.579160000000     0.0430733  
H626     H      0.861380000000     0.214150000000     0.650370000000     0.0434916  
H627     H      0.816410000000     0.223510000000     0.694940000000     0.0444868  
H628     H      0.772800000000     0.205100000000     0.605970000000     0.0429458  
H629     H      0.889740000000     0.185100000000     0.586110000000     0.0444396  
H630     H      0.846110000000     0.133540000000     0.534580000000     0.0444788  
H631     H      0.772780000000     0.171940000000     0.643430000000     0.0407933  
H632     H      0.816490000000     0.256750000000     0.657560000000     0.0431653  
H633     H      0.846180000000     0.473440000000     0.945000000000     0.0444047  
H634     H      0.889830000000     0.421990000000     0.893310000000     0.0443972  
H635     H      0.861410000000     0.392860000000     0.829140000000     0.0434673  
H636     H      0.801140000000     0.463920000000     0.900600000000     0.0428903  
H637     H      0.772870000000     0.401570000000     0.873840000000     0.0403651  
H638     H      0.816410000000     0.383420000000     0.784710000000     0.0445395  
H639     H      0.845970000000     0.006680000000     0.907600000000     0.0428824  
H640     H      0.889690000000     0.455170000000     0.855860000000     0.0414412  
H641     H      0.816570000000     0.350130000000     0.822050000000     0.0427734  
H642     H      0.772730000000     0.434820000000     0.836470000000     0.0401809  
H643     H      0.889750000000     0.185110000000     0.893330000000     0.0407774  
H644     H      0.846120000000     0.133630000000     0.944910000000     0.0442985  
H645     H      0.801130000000     0.143030000000     0.900380000000     0.0430497  
H646     H      0.861380000000     0.214170000000     0.829070000000     0.0431532  
H647     H      0.816510000000     0.256830000000     0.821880000000     0.0427411  
H648     H      0.772760000000     0.172080000000     0.836120000000     0.0433511  
H649     H      0.889710000000     0.151930000000     0.855890000000     0.043038   
H650     H      0.846000000000     0.100360000000     0.907540000000     0.0430603  
H651     H      0.772800000000     0.205280000000     0.873550000000     0.0383814  
H652     H      0.816400000000     0.223550000000     0.784530000000     0.0445302  
H653     H      0.596640000000     0.382560000000     0.785530000000     0.0431109  
H654     H      0.640430000000     0.432340000000     0.839410000000     0.041666   
H655     H      0.611370000000     0.462830000000     0.901800000000     0.0434973  
H656     H      0.551150000000     0.394280000000     0.827620000000     0.043342   
H657     H      0.523630000000     0.458200000000     0.852890000000     0.0404445  
H658     H      0.565890000000     0.474560000000     0.943880000000     0.0433357  
H659     H      0.595390000000     0.349450000000     0.822990000000     0.0448498  
H660     H      0.638890000000     0.398930000000     0.876540000000     0.0460895  
H661     H      0.567140000000     0.007670000000     0.906420000000     0.0443184  
H662     H      0.522100000000     0.424770000000     0.890000000000     0.043829   
H663     H      0.889770000000     0.422020000000     0.586080000000     0.0408253  
H664     H      0.846120000000     0.473520000000     0.534450000000     0.0443946  
H665     H      0.801110000000     0.464100000000     0.578910000000     0.0433326  
H666     H      0.861370000000     0.392930000000     0.650280000000     0.0431969  
H667     H      0.816510000000     0.350260000000     0.657400000000     0.0429368  
H668     H      0.772720000000     0.435020000000     0.643120000000     0.0443021  
H669     H      0.889680000000     0.455200000000     0.623520000000     0.0430781  
H670     H      0.845960000000     0.006770000000     0.571830000000     0.0430941  
H671     H      0.772800000000     0.401810000000     0.605690000000     0.0412597  
H672     H      0.816370000000     0.383530000000     0.694760000000     0.0445732  
N81      N      0.536380000000     0.132550000000     0.573160000000    -0.166521   
N82      N      0.626150000000     0.224540000000     0.656240000000    -0.16644    
N83      N      0.536370000000     0.132510000000     0.906170000000    -0.166352   
N84      N      0.626160000000     0.224530000000     0.823170000000    -0.165674   
N85      N      0.626120000000     0.382450000000     0.656150000000    -0.166504   
N86      N      0.536360000000     0.474600000000     0.573240000000    -0.166506   
N87      N      0.786310000000     0.222520000000     0.658500000000    -0.166521   
N88      N      0.876220000000     0.134530000000     0.571010000000    -0.166563   
N89      N      0.786330000000     0.384310000000     0.821210000000    -0.167226   
N90      N      0.876220000000     0.472530000000     0.908450000000    -0.166497   
N91      N      0.786310000000     0.222620000000     0.820990000000    -0.16709    
N92      N      0.876200000000     0.134560000000     0.908440000000    -0.166511   
N93      N      0.536380000000     0.474590000000     0.906230000000    -0.166603   
N94      N      0.626140000000     0.382530000000     0.823200000000    -0.165829   
N95      N      0.786290000000     0.384470000000     0.658280000000    -0.166456   
N96      N      0.876200000000     0.472580000000     0.570950000000    -0.166398   
O321     O      0.915880000000     0.482140000000     0.917420000000    -0.3763     
O322     O      0.888360000000     0.014430000000     0.949490000000    -0.3718     
O323     O      0.996700000000     0.484210000000     0.564240000000    -0.376465   
O324     O      0.524200000000     0.015090000000     0.530650000000    -0.371806   
O325     O      0.915850000000     0.482180000000     0.561970000000    -0.374545   
O326     O      0.888330000000     0.014430000000     0.529850000000    -0.371504   
O327     O      0.996730000000     0.484170000000     0.915240000000    -0.375163   
O328     O      0.524230000000     0.015150000000     0.948740000000    -0.371655   
O329     O      0.957290000000     0.436920000000     0.934330000000    -0.347962   
O330     O      0.955220000000     0.003510000000     0.866540000000    -0.526745   
O331     O      0.957380000000     0.437410000000     0.545180000000    -0.524366   
O332     O      0.955220000000     0.003640000000     0.613360000000    -0.351795   
O333     O      0.933270000000     0.000260000000     0.989610000000    -0.498705   
O334     O      0.979230000000     0.000220000000     0.989620000000    -0.633755   
O335     O      0.996710000000     0.122930000000     0.915150000000    -0.376222   
O336     O      0.524220000000     0.092010000000     0.948770000000    -0.371376   
O337     O      0.915870000000     0.124970000000     0.561980000000    -0.376491   
O338     O      0.888360000000     0.092670000000     0.529920000000    -0.37189    
O339     O      0.996730000000     0.122980000000     0.564160000000    -0.375119   
O340     O      0.524240000000     0.091980000000     0.530650000000    -0.371379   
O341     O      0.915860000000     0.124950000000     0.917450000000    -0.374592   
O342     O      0.888340000000     0.092720000000     0.949550000000    -0.371797   
O343     O      0.957320000000     0.169710000000     0.934210000000    -0.524318   
O344     O      0.955240000000     0.103470000000     0.866040000000    -0.351966   
O345     O      0.957210000000     0.170200000000     0.545090000000    -0.348024   
O346     O      0.955240000000     0.103600000000     0.612860000000    -0.527014   
O347     O      0.979220000000     0.106920000000     0.989790000000    -0.633876   
O348     O      0.933270000000     0.106850000000     0.989790000000    -0.498378   
O349     O      0.979450000000     0.053620000000     0.933050000000    -0.498281   
O350     O      0.933180000000     0.053500000000     0.546380000000    -0.633364   
O351     O      0.933190000000     0.053650000000     0.933020000000    -0.633398   
O352     O      0.979450000000     0.053480000000     0.546340000000    -0.498285   
O353     O      0.746630000000     0.374890000000     0.667290000000    -0.376366   
O354     O      0.774160000000     0.342650000000     0.699420000000    -0.371667   
O355     O      0.665800000000     0.372950000000     0.814170000000    -0.370651   
O356     O      0.638300000000     0.342020000000     0.780610000000    -0.371119   
O357     O      0.746680000000     0.374780000000     0.812150000000    -0.381448   
O358     O      0.774200000000     0.342650000000     0.779890000000    -0.372073   
O359     O      0.665770000000     0.372870000000     0.665160000000    -0.375725   
O360     O      0.638280000000     0.341920000000     0.698710000000    -0.371612   
O361     O      0.705220000000     0.420150000000     0.684190000000    -0.348083   
O362     O      0.707270000000     0.353520000000     0.616460000000    -0.526952   
O363     O      0.705310000000     0.419850000000     0.793820000000    -0.524809   
O364     O      0.706720000000     0.355090000000     0.863350000000    -0.34516    
O365     O      0.729260000000     0.356900000000     0.739520000000    -0.498414   
O366     O      0.683270000000     0.356910000000     0.739530000000    -0.633308   
O367     O      0.665810000000     0.234130000000     0.665230000000    -0.376945   
O368     O      0.638300000000     0.265060000000     0.698810000000    -0.371519   
O369     O      0.746660000000     0.232230000000     0.811990000000    -0.380094   
O370     O      0.774180000000     0.264480000000     0.779900000000    -0.372075   
O371     O      0.665830000000     0.234130000000     0.814210000000    -0.370783   
O372     O      0.638310000000     0.265130000000     0.780700000000    -0.37077    
O373     O      0.746660000000     0.232110000000     0.667520000000    -0.374792   
O374     O      0.774180000000     0.264390000000     0.699570000000    -0.371708   
O375     O      0.705210000000     0.187350000000     0.684370000000    -0.524622   
O376     O      0.707270000000     0.253490000000     0.616100000000    -0.351905   
O377     O      0.705400000000     0.187030000000     0.795710000000    -0.347648   
O378     O      0.707010000000     0.254270000000     0.862910000000    -0.529279   
O379     O      0.683300000000     0.250210000000     0.739860000000    -0.634284   
O380     O      0.729240000000     0.250300000000     0.739850000000    -0.498461   
O381     O      0.683070000000     0.303440000000     0.683050000000    -0.498508   
O382     O      0.729340000000     0.303730000000     0.796380000000    -0.63346    
O383     O      0.729330000000     0.303420000000     0.683010000000    -0.633586   
O384     O      0.683100000000     0.303770000000     0.796330000000    -0.496156   
Zr61     Zr     0.956280000000     0.001170000000     0.933880000000     1.37589    
Zr62     Zr     0.956280000000     0.001020000000     0.545360000000     1.37582    
Zr63     Zr     0.956280000000     0.106110000000     0.934040000000     1.37583    
Zr64     Zr     0.956280000000     0.105970000000     0.545530000000     1.37607    
Zr65     Zr     0.910840000000     0.053560000000     0.989690000000     1.37871    
Zr66     Zr     0.501730000000     0.053570000000     0.989700000000     1.37841    
Zr67     Zr     0.706230000000     0.355910000000     0.683800000000     1.37591    
Zr68     Zr     0.706240000000     0.356250000000     0.795240000000     1.37531    
Zr69     Zr     0.706240000000     0.250950000000     0.684110000000     1.37581    
Zr70     Zr     0.706240000000     0.251270000000     0.795600000000     1.37657    
Zr71     Zr     0.751680000000     0.303580000000     0.739680000000     1.37861    
Zr72     Zr     0.660790000000     0.303550000000     0.739700000000     1.37871    
C577     C      0.894160000000     0.990350000000     0.425800000000     0.394307   
C578     C      0.518410000000     0.992080000000     0.055480000000     0.394239   
C579     C      0.894140000000     0.990380000000     0.053570000000     0.395378   
C580     C      0.518440000000     0.992070000000     0.423970000000     0.395064   
C581     C      0.518420000000     0.615050000000     0.423920000000     0.393678   
C582     C      0.894160000000     0.616740000000     0.053620000000     0.394512   
C583     C      0.518440000000     0.615070000000     0.055430000000     0.394848   
C584     C      0.894140000000     0.616760000000     0.425840000000     0.395378   
C585     C      0.768350000000     0.866680000000     0.175680000000     0.394209   
C586     C      0.644090000000     0.865060000000     0.305430000000     0.394213   
C587     C      0.768400000000     0.866600000000     0.303730000000     0.395179   
C588     C      0.644070000000     0.864970000000     0.173900000000     0.395252   
C589     C      0.644100000000     0.742010000000     0.173990000000     0.393944   
C590     C      0.768370000000     0.740430000000     0.303600000000     0.395479   
C591     C      0.644110000000     0.742030000000     0.305470000000     0.393738   
C592     C      0.768370000000     0.740320000000     0.175890000000     0.395595   
C593     C      0.532530000000     0.660100000000     0.101370000000    -0.0239264  
C594     C      0.630010000000     0.696980000000     0.128040000000    -0.0239211  
C595     C      0.600710000000     0.730290000000     0.164100000000    -0.0236373  
C596     C      0.588730000000     0.704330000000     0.139390000000     0.0130234  
C597     C      0.605370000000     0.685390000000     0.118900000000     0.0130997  
C598     C      0.598380000000     0.659060000000     0.093630000000    -0.0664743  
C599     C      0.561830000000     0.626790000000     0.065310000000    -0.0235656  
C600     C      0.564150000000     0.698020000000     0.135790000000    -0.0665658  
C601     C      0.573810000000     0.652750000000     0.090020000000     0.0130368  
C602     C      0.557160000000     0.671690000000     0.110520000000     0.0132087  
C603     C      0.532530000000     0.660060000000     0.377950000000    -0.0239178  
C604     C      0.630010000000     0.696960000000     0.351370000000    -0.0244297  
C605     C      0.600720000000     0.730270000000     0.315300000000    -0.0235069  
C606     C      0.588730000000     0.704300000000     0.339980000000     0.0129349  
C607     C      0.605370000000     0.685360000000     0.360500000000     0.0136784  
C608     C      0.598380000000     0.659040000000     0.385760000000    -0.0666297  
C609     C      0.561820000000     0.626770000000     0.414040000000    -0.0237606  
C610     C      0.564160000000     0.697990000000     0.343570000000    -0.0664616  
C611     C      0.573810000000     0.652720000000     0.389340000000     0.0131829  
C612     C      0.557160000000     0.671660000000     0.368830000000     0.0130168  
C613     C      0.600680000000     0.876720000000     0.164030000000    -0.0236217  
C614     C      0.561800000000     0.980310000000     0.065350000000    -0.0235912  
C615     C      0.532510000000     0.947070000000     0.101440000000    -0.0238285  
C616     C      0.557130000000     0.935410000000     0.110550000000     0.013067   
C617     C      0.573780000000     0.954320000000     0.090020000000     0.0130894  
C618     C      0.598350000000     0.947960000000     0.093580000000    -0.0665479  
C619     C      0.629970000000     0.909970000000     0.127940000000    -0.0238142  
C620     C      0.564130000000     0.909070000000     0.135790000000    -0.0665903  
C621     C      0.605340000000     0.921620000000     0.118830000000     0.0132218  
C622     C      0.588700000000     0.902700000000     0.139350000000     0.0130757  
C623     C      0.811770000000     0.729200000000     0.165320000000    -0.0235292  
C624     C      0.850760000000     0.627830000000     0.064200000000    -0.0236088  
C625     C      0.880060000000     0.662460000000     0.098790000000    -0.0238619  
C626     C      0.855400000000     0.672920000000     0.109190000000     0.0132382  
C627     C      0.838750000000     0.653240000000     0.089510000000     0.012991   
C628     C      0.814150000000     0.658270000000     0.094530000000    -0.066615   
C629     C      0.782460000000     0.694580000000     0.130730000000    -0.0238019  
C630     C      0.848380000000     0.698760000000     0.135000000000    -0.0666618  
C631     C      0.807130000000     0.684100000000     0.120350000000     0.013093   
C632     C      0.823780000000     0.703790000000     0.140020000000     0.0131579  
C633     C      0.782480000000     0.912170000000     0.349070000000    -0.0234526  
C634     C      0.880080000000     0.944600000000     0.380660000000    -0.0240363  
C635     C      0.850760000000     0.979150000000     0.415350000000    -0.0234617  
C636     C      0.838760000000     0.953690000000     0.390100000000     0.0127755  
C637     C      0.855420000000     0.934060000000     0.370360000000     0.0133147  
C638     C      0.848400000000     0.908200000000     0.344570000000    -0.0667532  
C639     C      0.811800000000     0.877670000000     0.314330000000    -0.0236389  
C640     C      0.814150000000     0.948570000000     0.385180000000    -0.0664428  
C641     C      0.823810000000     0.903080000000     0.339640000000     0.0131497  
C642     C      0.807140000000     0.922700000000     0.359400000000     0.0126405  
C643     C      0.811770000000     0.729280000000     0.314150000000    -0.0235108  
C644     C      0.850750000000     0.627910000000     0.415290000000    -0.0233845  
C645     C      0.880050000000     0.662480000000     0.380660000000    -0.0237797  
C646     C      0.855400000000     0.672970000000     0.370290000000     0.0131591  
C647     C      0.838740000000     0.653320000000     0.389980000000     0.0129927  
C648     C      0.814140000000     0.658390000000     0.384990000000    -0.066592   
C649     C      0.782460000000     0.694710000000     0.348790000000    -0.0235449  
C650     C      0.848380000000     0.698810000000     0.344470000000    -0.0666568  
C651     C      0.807120000000     0.684230000000     0.359170000000     0.0128529  
C652     C      0.823770000000     0.703880000000     0.339470000000     0.0130052  
C653     C      0.532530000000     0.947030000000     0.378040000000    -0.0238788  
C654     C      0.629990000000     0.910080000000     0.351390000000    -0.0240008  
C655     C      0.600700000000     0.876780000000     0.315340000000    -0.0237044  
C656     C      0.588720000000     0.902750000000     0.340030000000     0.0131346  
C657     C      0.605370000000     0.921690000000     0.360520000000     0.0133839  
C658     C      0.598370000000     0.948030000000     0.385780000000    -0.0665986  
C659     C      0.561830000000     0.980340000000     0.414070000000    -0.0235865  
C660     C      0.564150000000     0.909080000000     0.343630000000    -0.066545   
C661     C      0.573810000000     0.954350000000     0.389380000000     0.013172   
C662     C      0.557160000000     0.935420000000     0.368890000000     0.0131942  
C663     C      0.811750000000     0.877800000000     0.165140000000    -0.0236268  
C664     C      0.850730000000     0.979230000000     0.064080000000    -0.0234879  
C665     C      0.880050000000     0.944650000000     0.098750000000    -0.0238599  
C666     C      0.855380000000     0.934140000000     0.109080000000     0.0131833  
C667     C      0.838730000000     0.953800000000     0.089360000000     0.0130367  
C668     C      0.814120000000     0.948730000000     0.094330000000    -0.0665388  
C669     C      0.782450000000     0.912380000000     0.130460000000    -0.0239528  
C670     C      0.848370000000     0.908290000000     0.134870000000    -0.0666317  
C671     C      0.807110000000     0.922870000000     0.120120000000     0.0131634  
C672     C      0.823760000000     0.903220000000     0.139830000000     0.0129824  
H673     H      0.989550000000     0.979780000000     0.489600000000     0.195972   
H674     H      0.922780000000     0.553470000000     0.067950000000     0.195355   
H675     H      0.989530000000     0.627360000000     0.489800000000     0.195869   
H676     H      0.922780000000     0.553690000000     0.411450000000     0.195387   
H677     H      0.966550000000     0.522720000000     0.119940000000     0.139678   
H678     H      0.965300000000     0.619110000000     0.127420000000     0.203076   
H679     H      0.947210000000     0.676950000000     0.023390000000     0.136482   
H680     H      0.965540000000     0.682110000000     0.454020000000     0.188193   
H681     H      0.966640000000     0.584480000000     0.359470000000     0.139815   
H682     H      0.944650000000     0.519900000000     0.354070000000     0.190242   
H683     H      0.947310000000     0.930170000000     0.456040000000     0.136544   
H684     H      0.965660000000     0.925030000000     0.025420000000     0.1883     
H685     H      0.949810000000     0.682800000000     0.414200000000     0.202478   
H686     H      0.965160000000     0.987790000000     0.351980000000     0.202884   
H687     H      0.949820000000     0.924310000000     0.065120000000     0.202494   
H688     H      0.944550000000     0.587390000000     0.125330000000     0.190266   
H689     H      0.672930000000     0.877340000000     0.239480000000     0.195495   
H690     H      0.739770000000     0.803700000000     0.317910000000     0.192621   
H691     H      0.673000000000     0.729760000000     0.239900000000     0.195828   
H692     H      0.739720000000     0.803360000000     0.161440000000     0.195581   
H693     H      0.719660000000     0.838380000000     0.369940000000     0.129316   
H694     H      0.698520000000     0.772920000000     0.375710000000     0.197317   
H695     H      0.715120000000     0.680160000000     0.273740000000     0.135835   
H696     H      0.697030000000     0.674990000000     0.204240000000     0.188008   
H697     H      0.695870000000     0.772490000000     0.109500000000     0.13969    
H698     H      0.717810000000     0.837070000000     0.104010000000     0.190207   
H699     H      0.715420000000     0.926940000000     0.205660000000     0.137036   
H700     H      0.696310000000     0.931930000000     0.274630000000     0.188623   
H701     H      0.712680000000     0.674240000000     0.164360000000     0.202493   
H702     H      0.697360000000     0.869260000000     0.101910000000     0.203074   
H703     H      0.713650000000     0.933270000000     0.312730000000     0.202285   
H704     H      0.715670000000     0.736710000000     0.377100000000     0.201089   
H705     H      0.596660000000     0.724500000000     0.193920000000     0.0431167  
H706     H      0.640450000000     0.674710000000     0.140000000000     0.0412609  
H707     H      0.611390000000     0.644260000000     0.077590000000     0.043331   
H708     H      0.551150000000     0.712820000000     0.151820000000     0.0433185  
H709     H      0.523630000000     0.648940000000     0.126510000000     0.0404115  
H710     H      0.565890000000     0.632580000000     0.035500000000     0.0433808  
H711     H      0.595370000000     0.757620000000     0.156470000000     0.0444708  
H712     H      0.638900000000     0.708140000000     0.102890000000     0.0437395  
H713     H      0.567160000000     0.599450000000     0.072950000000     0.0443336  
H714     H      0.522090000000     0.682380000000     0.089410000000     0.0438334  
H715     H      0.595380000000     0.757610000000     0.322940000000     0.0446156  
H716     H      0.638890000000     0.708110000000     0.376530000000     0.0438993  
H717     H      0.611380000000     0.644230000000     0.401800000000     0.0436938  
H718     H      0.551160000000     0.712790000000     0.327540000000     0.0432686  
H719     H      0.522080000000     0.682330000000     0.389910000000     0.0412891  
H720     H      0.567150000000     0.599430000000     0.406420000000     0.0444879  
H721     H      0.596670000000     0.724490000000     0.285480000000     0.043233   
H722     H      0.640450000000     0.674690000000     0.339410000000     0.0450313  
H723     H      0.565870000000     0.632550000000     0.443860000000     0.0432574  
H724     H      0.523640000000     0.648900000000     0.352800000000     0.0435785  
H725     H      0.523630000000     0.958250000000     0.126600000000     0.0435706  
H726     H      0.567140000000     0.507630000000     0.072980000000     0.0444579  
H727     H      0.611350000000     0.962740000000     0.077540000000     0.0434013  
H728     H      0.551130000000     0.894300000000     0.151830000000     0.0432768  
H729     H      0.596640000000     0.882510000000     0.193850000000     0.0432676  
H730     H      0.638850000000     0.898790000000     0.102780000000     0.0405599  
H731     H      0.522050000000     0.924820000000     0.089500000000     0.0412786  
H732     H      0.565840000000     0.974520000000     0.035530000000     0.0432471  
H733     H      0.640420000000     0.932230000000     0.139880000000     0.0437956  
H734     H      0.595350000000     0.849390000000     0.156390000000     0.0443646  
H735     H      0.889740000000     0.651930000000     0.123550000000     0.0414176  
H736     H      0.846050000000     0.600280000000     0.071950000000     0.0429858  
H737     H      0.801150000000     0.642880000000     0.079160000000     0.0431008  
H738     H      0.861380000000     0.714150000000     0.150370000000     0.0434938  
H739     H      0.816410000000     0.723510000000     0.194940000000     0.0444747  
H740     H      0.772800000000     0.705100000000     0.105970000000     0.0429765  
H741     H      0.889740000000     0.685110000000     0.086110000000     0.0444378  
H742     H      0.846110000000     0.633550000000     0.034580000000     0.0445336  
H743     H      0.772780000000     0.671950000000     0.143430000000     0.0408191  
H744     H      0.816490000000     0.756750000000     0.157560000000     0.0431651  
H745     H      0.846180000000     0.973440000000     0.444990000000     0.0444506  
H746     H      0.889830000000     0.921990000000     0.393310000000     0.0444408  
H747     H      0.861410000000     0.892860000000     0.329140000000     0.0434804  
H748     H      0.801140000000     0.963920000000     0.400610000000     0.0428941  
H749     H      0.772870000000     0.901570000000     0.373840000000     0.0403637  
H750     H      0.816410000000     0.883420000000     0.284710000000     0.0445447  
H751     H      0.845970000000     0.506670000000     0.407600000000     0.0429357  
H752     H      0.889690000000     0.955160000000     0.355860000000     0.0414697  
H753     H      0.816570000000     0.850130000000     0.322050000000     0.0427828  
H754     H      0.772730000000     0.934820000000     0.336470000000     0.0401705  
H755     H      0.889750000000     0.685110000000     0.393330000000     0.040803   
H756     H      0.846120000000     0.633630000000     0.444910000000     0.044353   
H757     H      0.801130000000     0.643030000000     0.400370000000     0.0430924  
H758     H      0.861380000000     0.714170000000     0.329070000000     0.0431548  
H759     H      0.816510000000     0.756820000000     0.321880000000     0.0427549  
H760     H      0.772760000000     0.672080000000     0.336120000000     0.0433603  
H761     H      0.889710000000     0.651930000000     0.355890000000     0.0430431  
H762     H      0.846000000000     0.600370000000     0.407540000000     0.0430991  
H763     H      0.772800000000     0.705280000000     0.373550000000     0.0384005  
H764     H      0.816400000000     0.723550000000     0.284520000000     0.04452    
H765     H      0.596640000000     0.882560000000     0.285530000000     0.0431099  
H766     H      0.640430000000     0.932340000000     0.339410000000     0.0416766  
H767     H      0.611370000000     0.962830000000     0.401800000000     0.0435249  
H768     H      0.551150000000     0.894280000000     0.327610000000     0.0433275  
H769     H      0.523630000000     0.958200000000     0.352890000000     0.0404416  
H770     H      0.565890000000     0.974560000000     0.443890000000     0.0433653  
H771     H      0.595390000000     0.849450000000     0.322990000000     0.0448539  
H772     H      0.638890000000     0.898930000000     0.376540000000     0.046109   
H773     H      0.567140000000     0.507670000000     0.406420000000     0.0443596  
H774     H      0.522100000000     0.924770000000     0.390000000000     0.043841   
H775     H      0.889770000000     0.922020000000     0.086080000000     0.040848   
H776     H      0.846120000000     0.973520000000     0.034450000000     0.0444419  
H777     H      0.801110000000     0.964100000000     0.078910000000     0.0433729  
H778     H      0.861370000000     0.892930000000     0.150280000000     0.0432021  
H779     H      0.816510000000     0.850260000000     0.157400000000     0.0429605  
H780     H      0.772720000000     0.935020000000     0.143110000000     0.044369   
H781     H      0.889680000000     0.955200000000     0.123530000000     0.0430884  
H782     H      0.845960000000     0.506770000000     0.071830000000     0.0431634  
H783     H      0.772810000000     0.901810000000     0.105690000000     0.0413407  
H784     H      0.816370000000     0.883530000000     0.194760000000     0.0445844  
N97      N      0.536380000000     0.632550000000     0.073160000000    -0.166504   
N98      N      0.626150000000     0.724530000000     0.156240000000    -0.166369   
N99      N      0.536370000000     0.632510000000     0.406170000000    -0.166353   
N100     N      0.626160000000     0.724530000000     0.323170000000    -0.165679   
N101     N      0.626130000000     0.882450000000     0.156150000000    -0.166597   
N102     N      0.536360000000     0.974600000000     0.073230000000    -0.166504   
N103     N      0.786310000000     0.722520000000     0.158490000000    -0.166467   
N104     N      0.876220000000     0.634540000000     0.071010000000    -0.166546   
N105     N      0.786330000000     0.884310000000     0.321210000000    -0.167217   
N106     N      0.876220000000     0.972530000000     0.408450000000    -0.166489   
N107     N      0.786310000000     0.722620000000     0.320990000000    -0.167088   
N108     N      0.876200000000     0.634560000000     0.408440000000    -0.166457   
N109     N      0.536380000000     0.974580000000     0.406230000000    -0.166556   
N110     N      0.626140000000     0.882530000000     0.323200000000    -0.165829   
N111     N      0.786290000000     0.884470000000     0.158280000000    -0.166421   
N112     N      0.876200000000     0.972580000000     0.070960000000    -0.166342   
O385     O      0.915880000000     0.982140000000     0.417420000000    -0.376255   
O386     O      0.888360000000     0.514430000000     0.449500000000    -0.37177    
O387     O      0.996710000000     0.984210000000     0.064240000000    -0.376491   
O388     O      0.524200000000     0.515090000000     0.030640000000    -0.371618   
O389     O      0.915850000000     0.982180000000     0.061970000000    -0.374439   
O390     O      0.888330000000     0.514430000000     0.029840000000    -0.371315   
O391     O      0.996730000000     0.984170000000     0.415240000000    -0.375061   
O392     O      0.524230000000     0.515150000000     0.448750000000    -0.371577   
O393     O      0.957290000000     0.936920000000     0.434330000000    -0.347859   
O394     O      0.955220000000     0.503500000000     0.366530000000    -0.526709   
O395     O      0.957380000000     0.937420000000     0.045180000000    -0.524162   
O396     O      0.955220000000     0.503640000000     0.113360000000    -0.351732   
O397     O      0.933270000000     0.500260000000     0.489610000000    -0.498568   
O398     O      0.979230000000     0.500230000000     0.489620000000    -0.633477   
O399     O      0.996710000000     0.622930000000     0.415150000000    -0.37622    
O400     O      0.524220000000     0.592010000000     0.448770000000    -0.371375   
O401     O      0.915870000000     0.624970000000     0.061980000000    -0.376465   
O402     O      0.888360000000     0.592670000000     0.029920000000    -0.371722   
O403     O      0.996730000000     0.622980000000     0.064160000000    -0.375111   
O404     O      0.524240000000     0.591980000000     0.030650000000    -0.37128    
O405     O      0.915860000000     0.624960000000     0.417450000000    -0.374495   
O406     O      0.888340000000     0.592710000000     0.449550000000    -0.37172    
O407     O      0.957320000000     0.669710000000     0.434210000000    -0.524129   
O408     O      0.955240000000     0.603480000000     0.366040000000    -0.351964   
O409     O      0.957210000000     0.670210000000     0.045100000000    -0.347769   
O410     O      0.955240000000     0.603600000000     0.112860000000    -0.527044   
O411     O      0.979220000000     0.606920000000     0.489790000000    -0.633823   
O412     O      0.933270000000     0.606850000000     0.489790000000    -0.498312   
O413     O      0.979450000000     0.553620000000     0.433050000000    -0.498233   
O414     O      0.933180000000     0.553500000000     0.046380000000    -0.633231   
O415     O      0.933190000000     0.553650000000     0.433010000000    -0.633468   
O416     O      0.979450000000     0.553480000000     0.046340000000    -0.498104   
O417     O      0.746630000000     0.874890000000     0.167290000000    -0.37636    
O418     O      0.774160000000     0.842650000000     0.199420000000    -0.371663   
O419     O      0.665800000000     0.872950000000     0.314170000000    -0.370647   
O420     O      0.638300000000     0.842020000000     0.280610000000    -0.371155   
O421     O      0.746680000000     0.874790000000     0.312150000000    -0.381381   
O422     O      0.774200000000     0.842650000000     0.279890000000    -0.372061   
O423     O      0.665770000000     0.872860000000     0.165160000000    -0.375788   
O424     O      0.638280000000     0.841920000000     0.198710000000    -0.371599   
O425     O      0.705220000000     0.920150000000     0.184190000000    -0.348081   
O426     O      0.707270000000     0.853520000000     0.116460000000    -0.526955   
O427     O      0.705310000000     0.919850000000     0.293820000000    -0.524808   
O428     O      0.706720000000     0.855090000000     0.363340000000    -0.345187   
O429     O      0.729260000000     0.856900000000     0.239520000000    -0.498422   
O430     O      0.683270000000     0.856910000000     0.239530000000    -0.633306   
O431     O      0.665810000000     0.734130000000     0.165230000000    -0.37689    
O432     O      0.638300000000     0.765060000000     0.198810000000    -0.371532   
O433     O      0.746660000000     0.732230000000     0.311990000000    -0.380089   
O434     O      0.774180000000     0.764480000000     0.279900000000    -0.372079   
O435     O      0.665830000000     0.734130000000     0.314210000000    -0.370788   
O436     O      0.638310000000     0.765130000000     0.280700000000    -0.370815   
O437     O      0.746660000000     0.732110000000     0.167520000000    -0.374709   
O438     O      0.774180000000     0.764400000000     0.199570000000    -0.371644   
O439     O      0.705210000000     0.687360000000     0.184380000000    -0.524338   
O440     O      0.707270000000     0.753490000000     0.116100000000    -0.351887   
O441     O      0.705400000000     0.687030000000     0.295710000000    -0.347638   
O442     O      0.707010000000     0.754270000000     0.362910000000    -0.529284   
O443     O      0.683300000000     0.750200000000     0.239860000000    -0.634404   
O444     O      0.729240000000     0.750300000000     0.239850000000    -0.498454   
O445     O      0.683070000000     0.803440000000     0.183050000000    -0.498506   
O446     O      0.729340000000     0.803730000000     0.296370000000    -0.633364   
O447     O      0.729330000000     0.803420000000     0.183010000000    -0.633671   
O448     O      0.683100000000     0.803770000000     0.296330000000    -0.496219   
Zr73     Zr     0.956280000000     0.501160000000     0.433880000000     1.3759     
Zr74     Zr     0.956280000000     0.501010000000     0.045350000000     1.37603    
Zr75     Zr     0.956280000000     0.606110000000     0.434040000000     1.37577    
Zr76     Zr     0.956280000000     0.605970000000     0.045530000000     1.3762     
Zr77     Zr     0.910840000000     0.553560000000     0.489690000000     1.37896    
Zr78     Zr     0.501730000000     0.553570000000     0.489700000000     1.37878    
Zr79     Zr     0.706230000000     0.855910000000     0.183800000000     1.37595    
Zr80     Zr     0.706240000000     0.856250000000     0.295240000000     1.37533    
Zr81     Zr     0.706240000000     0.750960000000     0.184110000000     1.37587    
Zr82     Zr     0.706240000000     0.751270000000     0.295600000000     1.37657    
Zr83     Zr     0.751680000000     0.803580000000     0.239680000000     1.37869    
Zr84     Zr     0.660790000000     0.803550000000     0.239710000000     1.37864    
C673     C      0.894160000000     0.990350000000     0.925800000000     0.394424   
C674     C      0.518410000000     0.992080000000     0.555490000000     0.39442    
C675     C      0.894140000000     0.990380000000     0.553570000000     0.395552   
C676     C      0.518440000000     0.992070000000     0.923970000000     0.395112   
C677     C      0.518420000000     0.615050000000     0.923920000000     0.393802   
C678     C      0.894160000000     0.616740000000     0.553610000000     0.394552   
C679     C      0.518440000000     0.615070000000     0.555430000000     0.394851   
C680     C      0.894140000000     0.616760000000     0.925840000000     0.395493   
C681     C      0.768350000000     0.866690000000     0.675680000000     0.394098   
C682     C      0.644090000000     0.865060000000     0.805430000000     0.394204   
C683     C      0.768400000000     0.866600000000     0.803730000000     0.395241   
C684     C      0.644070000000     0.864970000000     0.673900000000     0.395089   
C685     C      0.644100000000     0.742010000000     0.673980000000     0.393981   
C686     C      0.768370000000     0.740420000000     0.803600000000     0.39544    
C687     C      0.644110000000     0.742030000000     0.805470000000     0.393729   
C688     C      0.768370000000     0.740320000000     0.675890000000     0.395635   
C689     C      0.532530000000     0.660100000000     0.601370000000    -0.0239352  
C690     C      0.630000000000     0.696980000000     0.628040000000    -0.0238849  
C691     C      0.600710000000     0.730280000000     0.664100000000    -0.0235123  
C692     C      0.588730000000     0.704320000000     0.639400000000     0.0129694  
C693     C      0.605370000000     0.685390000000     0.618890000000     0.0131041  
C694     C      0.598380000000     0.659060000000     0.593630000000    -0.0664818  
C695     C      0.561830000000     0.626790000000     0.565320000000    -0.0235193  
C696     C      0.564150000000     0.698010000000     0.635790000000    -0.0665309  
C697     C      0.573810000000     0.652750000000     0.590020000000     0.0130127  
C698     C      0.557160000000     0.671690000000     0.610520000000     0.0132091  
C699     C      0.532530000000     0.660060000000     0.877950000000    -0.0239549  
C700     C      0.630010000000     0.696960000000     0.851370000000    -0.0244266  
C701     C      0.600720000000     0.730270000000     0.815300000000    -0.0235043  
C702     C      0.588730000000     0.704300000000     0.839980000000     0.0129225  
C703     C      0.605370000000     0.685360000000     0.860500000000     0.0136711  
C704     C      0.598380000000     0.659040000000     0.885760000000    -0.0666256  
C705     C      0.561820000000     0.626770000000     0.914040000000    -0.0237372  
C706     C      0.564160000000     0.697980000000     0.843570000000    -0.0664503  
C707     C      0.573810000000     0.652720000000     0.889350000000     0.0131534  
C708     C      0.557160000000     0.671660000000     0.868830000000     0.0130384  
C709     C      0.600680000000     0.876720000000     0.664030000000    -0.0235912  
C710     C      0.561800000000     0.980310000000     0.565350000000    -0.0235773  
C711     C      0.532510000000     0.947070000000     0.601450000000    -0.0238387  
C712     C      0.557130000000     0.935420000000     0.610550000000     0.0130615  
C713     C      0.573780000000     0.954320000000     0.590020000000     0.0130734  
C714     C      0.598350000000     0.947960000000     0.593580000000    -0.0665559  
C715     C      0.629970000000     0.909970000000     0.627940000000    -0.0238299  
C716     C      0.564130000000     0.909070000000     0.635790000000    -0.0665622  
C717     C      0.605340000000     0.921620000000     0.618830000000     0.0132232  
C718     C      0.588700000000     0.902710000000     0.639350000000     0.0130524  
C719     C      0.811770000000     0.729210000000     0.665320000000    -0.023546   
C720     C      0.850760000000     0.627840000000     0.564200000000    -0.0235609  
C721     C      0.880060000000     0.662460000000     0.598790000000    -0.0238626  
C722     C      0.855400000000     0.672920000000     0.609180000000     0.0132369  
C723     C      0.838750000000     0.653240000000     0.589520000000     0.0129499  
C724     C      0.814150000000     0.658270000000     0.594540000000    -0.0665881  
C725     C      0.782460000000     0.694580000000     0.630730000000    -0.0238291  
C726     C      0.848380000000     0.698760000000     0.635000000000    -0.0666625  
C727     C      0.807130000000     0.684110000000     0.620350000000     0.0130896  
C728     C      0.823780000000     0.703800000000     0.640020000000     0.0131528  
C729     C      0.782480000000     0.912180000000     0.849070000000    -0.0235722  
C730     C      0.880080000000     0.944610000000     0.880660000000    -0.023937   
C731     C      0.850760000000     0.979150000000     0.915360000000    -0.0234624  
C732     C      0.838760000000     0.953690000000     0.890100000000     0.0128045  
C733     C      0.855420000000     0.934060000000     0.870360000000     0.0132496  
C734     C      0.848400000000     0.908200000000     0.844570000000    -0.0667056  
C735     C      0.811800000000     0.877670000000     0.814330000000    -0.0236199  
C736     C      0.814150000000     0.948570000000     0.885180000000    -0.0665142  
C737     C      0.823800000000     0.903080000000     0.839640000000     0.0130993  
C738     C      0.807140000000     0.922710000000     0.859400000000     0.0127088  
C739     C      0.811770000000     0.729280000000     0.814150000000    -0.0235031  
C740     C      0.850750000000     0.627910000000     0.915290000000    -0.023437   
C741     C      0.880050000000     0.662480000000     0.880660000000    -0.0237237  
C742     C      0.855400000000     0.672970000000     0.870290000000     0.0131358  
C743     C      0.838740000000     0.653320000000     0.889980000000     0.0129888  
C744     C      0.814140000000     0.658390000000     0.884990000000    -0.0665616  
C745     C      0.782460000000     0.694720000000     0.848790000000    -0.0234604  
C746     C      0.848380000000     0.698810000000     0.844470000000    -0.0666559  
C747     C      0.807120000000     0.684230000000     0.859170000000     0.0128041  
C748     C      0.823770000000     0.703880000000     0.839470000000     0.0130126  
C749     C      0.532530000000     0.947030000000     0.878040000000    -0.0238815  
C750     C      0.629990000000     0.910080000000     0.851390000000    -0.0239987  
C751     C      0.600700000000     0.876780000000     0.815340000000    -0.0237023  
C752     C      0.588720000000     0.902760000000     0.840030000000     0.0131308  
C753     C      0.605370000000     0.921690000000     0.860530000000     0.0133792  
C754     C      0.598370000000     0.948030000000     0.885780000000    -0.0666087  
C755     C      0.561830000000     0.980340000000     0.914070000000    -0.0236138  
C756     C      0.564150000000     0.909090000000     0.843630000000    -0.0665546  
C757     C      0.573810000000     0.954350000000     0.889380000000     0.0131654  
C758     C      0.557160000000     0.935420000000     0.868890000000     0.0132026  
C759     C      0.811750000000     0.877800000000     0.665140000000    -0.0236257  
C760     C      0.850730000000     0.979230000000     0.564080000000    -0.0234423  
C761     C      0.880050000000     0.944650000000     0.598740000000    -0.0238663  
C762     C      0.855380000000     0.934140000000     0.609080000000     0.0131871  
C763     C      0.838730000000     0.953800000000     0.589360000000     0.0129986  
C764     C      0.814120000000     0.948720000000     0.594330000000    -0.0665223  
C765     C      0.782450000000     0.912380000000     0.630470000000    -0.0238974  
C766     C      0.848370000000     0.908290000000     0.634870000000    -0.0666438  
C767     C      0.807100000000     0.922870000000     0.620120000000     0.0131341  
C768     C      0.823760000000     0.903220000000     0.639830000000     0.0129939  
H785     H      0.989550000000     0.979780000000     0.989600000000     0.195932   
H786     H      0.922780000000     0.553470000000     0.567950000000     0.195382   
H787     H      0.989530000000     0.627360000000     0.989800000000     0.195805   
H788     H      0.922780000000     0.553690000000     0.911450000000     0.19522    
H789     H      0.966550000000     0.522720000000     0.619940000000     0.139685   
H790     H      0.965300000000     0.619120000000     0.627410000000     0.203059   
H791     H      0.947210000000     0.676950000000     0.523400000000     0.136649   
H792     H      0.965540000000     0.682110000000     0.954020000000     0.188197   
H793     H      0.966640000000     0.584480000000     0.859470000000     0.139817   
H794     H      0.944650000000     0.519900000000     0.854070000000     0.190171   
H795     H      0.947310000000     0.930170000000     0.956040000000     0.136501   
H796     H      0.965660000000     0.925030000000     0.525420000000     0.188247   
H797     H      0.949810000000     0.682800000000     0.914210000000     0.202617   
H798     H      0.965160000000     0.987790000000     0.851990000000     0.202871   
H799     H      0.949820000000     0.924310000000     0.565120000000     0.202474   
H800     H      0.944550000000     0.587390000000     0.625330000000     0.190273   
H801     H      0.672930000000     0.877350000000     0.739480000000     0.195314   
H802     H      0.739770000000     0.803700000000     0.817910000000     0.192803   
H803     H      0.673000000000     0.729760000000     0.739900000000     0.195646   
H804     H      0.739720000000     0.803360000000     0.661440000000     0.195573   
H805     H      0.719660000000     0.838380000000     0.869940000000     0.129315   
H806     H      0.698520000000     0.772920000000     0.875710000000     0.197302   
H807     H      0.715120000000     0.680160000000     0.773740000000     0.135829   
H808     H      0.697030000000     0.674990000000     0.704240000000     0.187894   
H809     H      0.695870000000     0.772490000000     0.609500000000     0.139676   
H810     H      0.717810000000     0.837070000000     0.604010000000     0.190186   
H811     H      0.715420000000     0.926940000000     0.705660000000     0.137035   
H812     H      0.696310000000     0.931930000000     0.774630000000     0.188624   
H813     H      0.712680000000     0.674240000000     0.664360000000     0.2026     
H814     H      0.697360000000     0.869260000000     0.601910000000     0.203052   
H815     H      0.713650000000     0.933270000000     0.812730000000     0.202273   
H816     H      0.715670000000     0.736710000000     0.877100000000     0.201071   
H817     H      0.596660000000     0.724500000000     0.693920000000     0.0430896  
H818     H      0.640450000000     0.674710000000     0.640000000000     0.0412396  
H819     H      0.611390000000     0.644260000000     0.577590000000     0.0433081  
H820     H      0.551150000000     0.712820000000     0.651820000000     0.0432948  
H821     H      0.523630000000     0.648950000000     0.626510000000     0.0404143  
H822     H      0.565890000000     0.632580000000     0.535500000000     0.0433165  
H823     H      0.595370000000     0.757630000000     0.656470000000     0.0444206  
H824     H      0.638900000000     0.708140000000     0.602890000000     0.0437022  
H825     H      0.567160000000     0.599450000000     0.572950000000     0.0443102  
H826     H      0.522090000000     0.682380000000     0.589410000000     0.0438164  
H827     H      0.595380000000     0.757610000000     0.822940000000     0.0446085  
H828     H      0.638890000000     0.708110000000     0.876530000000     0.0438823  
H829     H      0.611380000000     0.644230000000     0.901800000000     0.0436719  
H830     H      0.551160000000     0.712790000000     0.827540000000     0.0432525  
H831     H      0.522080000000     0.682330000000     0.889910000000     0.0412828  
H832     H      0.567150000000     0.599430000000     0.906420000000     0.0444736  
H833     H      0.596670000000     0.724490000000     0.785480000000     0.0432347  
H834     H      0.640450000000     0.674690000000     0.839410000000     0.0450272  
H835     H      0.565870000000     0.632560000000     0.943860000000     0.0432154  
H836     H      0.523640000000     0.648900000000     0.852810000000     0.043598   
H837     H      0.523630000000     0.958250000000     0.626600000000     0.0435794  
H838     H      0.567140000000     0.507640000000     0.572990000000     0.0444302  
H839     H      0.611350000000     0.962740000000     0.577540000000     0.0433792  
H840     H      0.551130000000     0.894300000000     0.651840000000     0.0432564  
H841     H      0.596640000000     0.882510000000     0.693850000000     0.0432623  
H842     H      0.638850000000     0.898790000000     0.602780000000     0.0405413  
H843     H      0.522050000000     0.924820000000     0.589490000000     0.0412644  
H844     H      0.565840000000     0.974520000000     0.535530000000     0.0432007  
H845     H      0.640420000000     0.932240000000     0.639880000000     0.0437856  
H846     H      0.595350000000     0.849400000000     0.656390000000     0.0443574  
H847     H      0.889740000000     0.651930000000     0.623550000000     0.041422   
H848     H      0.846050000000     0.600280000000     0.571950000000     0.0429585  
H849     H      0.801150000000     0.642880000000     0.579160000000     0.0430614  
H850     H      0.861380000000     0.714150000000     0.650370000000     0.0434893  
H851     H      0.816410000000     0.723510000000     0.694940000000     0.0444852  
H852     H      0.772800000000     0.705100000000     0.605970000000     0.0429609  
H853     H      0.889740000000     0.685110000000     0.586110000000     0.0444152  
H854     H      0.846110000000     0.633550000000     0.534580000000     0.0444726  
H855     H      0.772780000000     0.671950000000     0.643430000000     0.0408217  
H856     H      0.816490000000     0.756750000000     0.657560000000     0.0431692  
H857     H      0.846180000000     0.973440000000     0.945000000000     0.0444092  
H858     H      0.889830000000     0.921990000000     0.893310000000     0.0443942  
H859     H      0.861410000000     0.892860000000     0.829140000000     0.0434649  
H860     H      0.801140000000     0.963920000000     0.900600000000     0.0429016  
H861     H      0.772870000000     0.901570000000     0.873840000000     0.0403763  
H862     H      0.816410000000     0.883420000000     0.784710000000     0.0445397  
H863     H      0.845970000000     0.506680000000     0.907600000000     0.0429091  
H864     H      0.889690000000     0.955170000000     0.855860000000     0.041446   
H865     H      0.816570000000     0.850130000000     0.822050000000     0.0427734  
H866     H      0.772730000000     0.934810000000     0.836470000000     0.0402065  
H867     H      0.889750000000     0.685110000000     0.893330000000     0.0407776  
H868     H      0.846120000000     0.633630000000     0.944910000000     0.0443273  
H869     H      0.801130000000     0.643030000000     0.900380000000     0.0430551  
H870     H      0.861380000000     0.714170000000     0.829070000000     0.0431503  
H871     H      0.816510000000     0.756830000000     0.821880000000     0.042741   
H872     H      0.772760000000     0.672080000000     0.836120000000     0.0433241  
H873     H      0.889710000000     0.651930000000     0.855890000000     0.0430358  
H874     H      0.846000000000     0.600370000000     0.907540000000     0.0431036  
H875     H      0.772800000000     0.705280000000     0.873550000000     0.0383642  
H876     H      0.816400000000     0.723550000000     0.784530000000     0.0445244  
H877     H      0.596640000000     0.882560000000     0.785530000000     0.0431112  
H878     H      0.640430000000     0.932340000000     0.839410000000     0.0416724  
H879     H      0.611370000000     0.962830000000     0.901800000000     0.0435066  
H880     H      0.551150000000     0.894280000000     0.827620000000     0.0433263  
H881     H      0.523630000000     0.958200000000     0.852890000000     0.040444   
H882     H      0.565890000000     0.974560000000     0.943880000000     0.0433417  
H883     H      0.595390000000     0.849450000000     0.822990000000     0.0448468  
H884     H      0.638890000000     0.898930000000     0.876540000000     0.0460916  
H885     H      0.567140000000     0.507670000000     0.906420000000     0.044357   
H886     H      0.522100000000     0.924770000000     0.890000000000     0.0438313  
H887     H      0.889770000000     0.922020000000     0.586080000000     0.0408296  
H888     H      0.846120000000     0.973520000000     0.534450000000     0.044391   
H889     H      0.801110000000     0.964090000000     0.578910000000     0.043345   
H890     H      0.861370000000     0.892930000000     0.650280000000     0.0431999  
H891     H      0.816510000000     0.850260000000     0.657400000000     0.0429564  
H892     H      0.772720000000     0.935010000000     0.643120000000     0.0443589  
H893     H      0.889680000000     0.955190000000     0.623520000000     0.0430879  
H894     H      0.845960000000     0.506770000000     0.571830000000     0.0431365  
H895     H      0.772800000000     0.901820000000     0.605690000000     0.0412967  
H896     H      0.816370000000     0.883530000000     0.694760000000     0.0445824  
N113     N      0.536380000000     0.632550000000     0.573160000000    -0.166518   
N114     N      0.626150000000     0.724540000000     0.656240000000    -0.166454   
N115     N      0.536370000000     0.632510000000     0.906170000000    -0.166378   
N116     N      0.626160000000     0.724530000000     0.823170000000    -0.165679   
N117     N      0.626120000000     0.882450000000     0.656150000000    -0.166512   
N118     N      0.536360000000     0.974600000000     0.573240000000    -0.16655    
N119     N      0.786310000000     0.722520000000     0.658500000000    -0.166491   
N120     N      0.876220000000     0.634540000000     0.571010000000    -0.166541   
N121     N      0.786330000000     0.884310000000     0.821210000000    -0.167221   
N122     N      0.876220000000     0.972530000000     0.908450000000    -0.166527   
N123     N      0.786310000000     0.722620000000     0.820990000000    -0.167129   
N124     N      0.876210000000     0.634560000000     0.908440000000    -0.166539   
N125     N      0.536380000000     0.974580000000     0.906230000000    -0.166561   
N126     N      0.626140000000     0.882530000000     0.823200000000    -0.165829   
N127     N      0.786290000000     0.884470000000     0.658280000000    -0.166442   
N128     N      0.876200000000     0.972580000000     0.570950000000    -0.166405   
O449     O      0.915880000000     0.982140000000     0.917420000000    -0.376284   
O450     O      0.888360000000     0.514430000000     0.949490000000    -0.371832   
O451     O      0.996700000000     0.984210000000     0.564240000000    -0.376486   
O452     O      0.524200000000     0.515100000000     0.530650000000    -0.3717     
O453     O      0.915850000000     0.982180000000     0.561970000000    -0.374525   
O454     O      0.888330000000     0.514430000000     0.529850000000    -0.37146    
O455     O      0.996730000000     0.984160000000     0.915240000000    -0.375047   
O456     O      0.524230000000     0.515150000000     0.948740000000    -0.371644   
O457     O      0.957290000000     0.936920000000     0.934330000000    -0.347869   
O458     O      0.955220000000     0.503500000000     0.866540000000    -0.526679   
O459     O      0.957380000000     0.937420000000     0.545180000000    -0.524158   
O460     O      0.955220000000     0.503640000000     0.613360000000    -0.35178    
O461     O      0.933270000000     0.500260000000     0.989610000000    -0.498707   
O462     O      0.979230000000     0.500230000000     0.989620000000    -0.633535   
O463     O      0.996710000000     0.622930000000     0.915150000000    -0.376259   
O464     O      0.524220000000     0.592020000000     0.948770000000    -0.371437   
O465     O      0.915870000000     0.624970000000     0.561980000000    -0.37648    
O466     O      0.888360000000     0.592670000000     0.529920000000    -0.371884   
O467     O      0.996730000000     0.622980000000     0.564160000000    -0.375119   
O468     O      0.524240000000     0.591980000000     0.530650000000    -0.371378   
O469     O      0.915860000000     0.624960000000     0.917450000000    -0.374529   
O470     O      0.888340000000     0.592710000000     0.949550000000    -0.371762   
O471     O      0.957320000000     0.669710000000     0.934210000000    -0.524319   
O472     O      0.955240000000     0.603480000000     0.866040000000    -0.351965   
O473     O      0.957210000000     0.670210000000     0.545090000000    -0.348005   
O474     O      0.955240000000     0.603600000000     0.612860000000    -0.527011   
O475     O      0.979220000000     0.606920000000     0.989790000000    -0.633806   
O476     O      0.933270000000     0.606850000000     0.989790000000    -0.498391   
O477     O      0.979450000000     0.553630000000     0.933050000000    -0.498166   
O478     O      0.933180000000     0.553500000000     0.546380000000    -0.633355   
O479     O      0.933190000000     0.553650000000     0.933020000000    -0.633338   
O480     O      0.979450000000     0.553480000000     0.546340000000    -0.498267   
O481     O      0.746630000000     0.874900000000     0.667290000000    -0.37631    
O482     O      0.774160000000     0.842650000000     0.699420000000    -0.371568   
O483     O      0.665800000000     0.872950000000     0.814170000000    -0.370644   
O484     O      0.638300000000     0.842020000000     0.780610000000    -0.371112   
O485     O      0.746680000000     0.874780000000     0.812150000000    -0.381446   
O486     O      0.774200000000     0.842650000000     0.779890000000    -0.372075   
O487     O      0.665770000000     0.872870000000     0.665160000000    -0.375716   
O488     O      0.638280000000     0.841920000000     0.698710000000    -0.371603   
O489     O      0.705220000000     0.920150000000     0.684190000000    -0.348072   
O490     O      0.707270000000     0.853520000000     0.616460000000    -0.526952   
O491     O      0.705310000000     0.919850000000     0.793820000000    -0.524808   
O492     O      0.706720000000     0.855090000000     0.863350000000    -0.345157   
O493     O      0.729260000000     0.856900000000     0.739520000000    -0.498419   
O494     O      0.683270000000     0.856910000000     0.739530000000    -0.633126   
O495     O      0.665810000000     0.734130000000     0.665230000000    -0.37692    
O496     O      0.638300000000     0.765060000000     0.698810000000    -0.371516   
O497     O      0.746660000000     0.732230000000     0.811990000000    -0.380106   
O498     O      0.774180000000     0.764480000000     0.779900000000    -0.372001   
O499     O      0.665830000000     0.734130000000     0.814210000000    -0.370782   
O500     O      0.638310000000     0.765130000000     0.780700000000    -0.370769   
O501     O      0.746660000000     0.732110000000     0.667520000000    -0.374726   
O502     O      0.774180000000     0.764400000000     0.699570000000    -0.371649   
O503     O      0.705210000000     0.687360000000     0.684370000000    -0.524339   
O504     O      0.707270000000     0.753490000000     0.616100000000    -0.3519     
O505     O      0.705400000000     0.687030000000     0.795710000000    -0.347644   
O506     O      0.707010000000     0.754270000000     0.862910000000    -0.529278   
O507     O      0.683300000000     0.750210000000     0.739860000000    -0.634288   
O508     O      0.729240000000     0.750300000000     0.739850000000    -0.498462   
O509     O      0.683070000000     0.803440000000     0.683050000000    -0.49857    
O510     O      0.729340000000     0.803730000000     0.796380000000    -0.633462   
O511     O      0.729330000000     0.803420000000     0.683010000000    -0.63366    
O512     O      0.683100000000     0.803770000000     0.796330000000    -0.496159   
Zr85     Zr     0.956280000000     0.501160000000     0.933880000000     1.37591    
Zr86     Zr     0.956280000000     0.501020000000     0.545360000000     1.37581    
Zr87     Zr     0.956280000000     0.606110000000     0.934040000000     1.37587    
Zr88     Zr     0.956280000000     0.605970000000     0.545530000000     1.376      
Zr89     Zr     0.910840000000     0.553560000000     0.989690000000     1.37876    
Zr90     Zr     0.501730000000     0.553570000000     0.989700000000     1.37846    
Zr91     Zr     0.706230000000     0.855910000000     0.683800000000     1.37587    
Zr92     Zr     0.706240000000     0.856250000000     0.795240000000     1.37529    
Zr93     Zr     0.706240000000     0.750960000000     0.684110000000     1.37586    
Zr94     Zr     0.706240000000     0.751270000000     0.795600000000     1.37657    
Zr95     Zr     0.751680000000     0.803580000000     0.739680000000     1.3786     
Zr96     Zr     0.660790000000     0.803550000000     0.739700000000     1.3787     


