data_structure

_audit_creation_method RASPA-1.0
_audit_creation_date 2023-6-4
_audit_author_name 'Poobodin Mano'

_cell_length_a    32.9366
_cell_length_b    36.5484
_cell_length_c    37.8895
_cell_angle_alpha 82.7639
_cell_angle_beta  96.3185
_cell_angle_gamma 119.439
_cell_volume      39343.8

_symmetry_cell_setting          triclinic
_symmetry_space_group_name_Hall 'P 1'
_symmetry_space_group_name_H-M  'P 1'
_symmetry_Int_Tables_number     1

_symmetry_equiv_pos_as_xyz 'x,y,z'

loop_
_atom_site_label
_atom_site_type_symbol
_atom_site_fract_x
_atom_site_fract_y
_atom_site_fract_z
_atom_site_charge
C1       C      0.152370000000     0.082920000000     0.001470000000     0.397356   
C2       C      0.956860000000     0.963860000000     0.844460000000     0.386614   
C3       C      0.057230000000     0.126270000000     0.957660000000     0.396921   
C4       C      0.050790000000     0.902440000000     0.911250000000     0.39826    
C5       C      0.938440000000     0.829080000000     0.983090000000     0.397558   
C6       C      0.943180000000     0.047370000000     0.035740000000     0.394175   
C7       C      0.842130000000     0.874160000000     0.937050000000     0.390863   
C8       C      0.034830000000     0.990660000000     0.096660000000     0.386296   
C9       C      0.052630000000     0.894020000000     0.437780000000     0.390513   
C10      C      0.842150000000     0.962650000000     0.440090000000     0.391655   
C11      C      0.027510000000     0.993730000000     0.346510000000     0.38452    
C12      C      0.865560000000     0.867970000000     0.526980000000     0.389264   
C13      C      0.964110000000     0.968310000000     0.593830000000     0.386406   
C14      C      0.130290000000     0.100990000000     0.414850000000     0.386732   
C15      C      0.937240000000     0.070700000000     0.489110000000     0.377882   
C16      C      0.155220000000     0.013560000000     0.500400000000     0.392753   
C17      C      0.030080000000     0.364630000000     0.971510000000     0.398665   
C18      C      0.878360000000     0.477100000000     0.025130000000     0.3896     
C19      C      0.892180000000     0.359820000000     0.909270000000     0.388028   
C20      C      0.009450000000     0.477300000000     0.098170000000     0.396391   
C21      C      0.111160000000     0.603560000000     0.031770000000     0.390283   
C22      C      0.999980000000     0.490040000000     0.843810000000     0.402555   
C23      C      0.966050000000     0.593350000000     0.971190000000     0.402733   
C24      C      0.120640000000     0.490540000000     0.909920000000     0.383457   
C25      C      0.984650000000     0.345370000000     0.490990000000     0.390505   
C26      C      0.892120000000     0.511240000000     0.518230000000     0.392502   
C27      C      0.873100000000     0.350820000000     0.438210000000     0.400297   
C28      C      0.019550000000     0.504530000000     0.594810000000     0.396091   
C29      C      0.123870000000     0.613280000000     0.510410000000     0.393519   
C30      C      0.981780000000     0.465670000000     0.346140000000     0.39997    
C31      C      0.006530000000     0.621120000000     0.449950000000     0.388307   
C32      C      0.099000000000     0.460920000000     0.414520000000     0.376188   
C33      C      0.338850000000     0.945580000000     0.941530000000     0.39318    
C34      C      0.567090000000     0.901280000000     0.958190000000     0.375776   
C35      C      0.371700000000     0.867790000000     0.031020000000     0.388044   
C36      C      0.529660000000     0.991030000000     0.848160000000     0.387971   
C37      C      0.627730000000     0.099560000000     0.907940000000     0.386219   
C38      C      0.475890000000     0.994390000000     0.091000000000     0.386977   
C39      C      0.658780000000     0.016720000000     0.999980000000     0.395109   
C40      C      0.437300000000     0.072470000000     0.993250000000     0.387877   
C41      C      0.562400000000     0.136770000000     0.464740000000     0.396794   
C42      C      0.344250000000     0.883600000000     0.436990000000     0.396813   
C43      C      0.444270000000     0.061680000000     0.529850000000     0.39755    
C44      C      0.475660000000     0.984160000000     0.343090000000     0.389257   
C45      C      0.554920000000     0.920840000000     0.403320000000     0.395578   
C46      C      0.530050000000     0.992340000000     0.597420000000     0.386953   
C47      C      0.434970000000     0.838310000000     0.476160000000     0.393452   
C48      C      0.652750000000     0.083660000000     0.513420000000     0.391667   
C49      C      0.487380000000     0.345620000000     0.991880000000     0.388414   
C50      C      0.391560000000     0.508890000000     0.021120000000     0.386678   
C51      C      0.378040000000     0.354550000000     0.934360000000     0.399768   
C52      C      0.516070000000     0.501040000000     0.097810000000     0.398334   
C53      C      0.624470000000     0.611370000000     0.019120000000     0.39252    
C54      C      0.490730000000     0.471700000000     0.848570000000     0.401973   
C55      C      0.513750000000     0.623860000000     0.955230000000     0.387203   
C56      C      0.606160000000     0.464780000000     0.919820000000     0.380345   
C57      C      0.535250000000     0.374780000000     0.475400000000     0.396949   
C58      C      0.370900000000     0.478610000000     0.525010000000     0.389288   
C59      C      0.391860000000     0.362120000000     0.412450000000     0.389001   
C60      C      0.506420000000     0.485180000000     0.599030000000     0.399054   
C61      C      0.603550000000     0.606470000000     0.534540000000     0.385094   
C62      C      0.494070000000     0.491260000000     0.345630000000     0.403314   
C63      C      0.456970000000     0.596520000000     0.469650000000     0.399056   
C64      C      0.621020000000     0.498140000000     0.412190000000     0.385863   
C65      C      0.485970000000     0.502570000000     0.787510000000    -0.0242473  
C66      C      0.511010000000     0.451540000000     0.659690000000    -0.0232513  
C67      C      0.498910000000     0.512810000000     0.653010000000    -0.0240249  
C68      C      0.497810000000     0.496380000000     0.690670000000     0.0152946  
C69      C      0.504140000000     0.461250000000     0.694620000000     0.0125884  
C70      C      0.503260000000     0.439580000000     0.728060000000    -0.065781   
C71      C      0.494470000000     0.439360000000     0.795390000000    -0.023065   
C72      C      0.491110000000     0.512300000000     0.719730000000    -0.0679278  
C73      C      0.496130000000     0.455380000000     0.757260000000     0.0129128  
C74      C      0.490650000000     0.490960000000     0.753030000000     0.0153596  
C75      C      0.524550000000     0.473500000000     0.159610000000    -0.0243136  
C76      C      0.494710000000     0.526430000000     0.284600000000    -0.0225094  
C77      C      0.506000000000     0.464690000000     0.293020000000    -0.0237748  
C78      C      0.509830000000     0.481420000000     0.255420000000     0.0151446  
C79      C      0.503510000000     0.516560000000     0.250400000000     0.0121933  
C80      C      0.505090000000     0.537560000000     0.216560000000    -0.0660056  
C81      C      0.514210000000     0.535730000000     0.149830000000    -0.0232608  
C82      C      0.517910000000     0.465170000000     0.227230000000    -0.0680876  
C83      C      0.513240000000     0.521250000000     0.188210000000     0.0124477  
C84      C      0.519370000000     0.486000000000     0.193550000000     0.0148793  
C85      C      0.426620000000     0.643780000000     0.439120000000    -0.0232736  
C86      C      0.419960000000     0.769590000000     0.508710000000    -0.0251503  
C87      C      0.408070000000     0.774350000000     0.444090000000    -0.0241346  
C88      C      0.408280000000     0.734630000000     0.457100000000     0.0113154  
C89      C      0.415070000000     0.731910000000     0.493900000000     0.0132333  
C90      C      0.423350000000     0.700300000000     0.512070000000    -0.0677065  
C91      C      0.439140000000     0.639840000000     0.503770000000    -0.0233946  
C92      C      0.409240000000     0.705860000000     0.436470000000    -0.0671384  
C93      C      0.424610000000     0.671750000000     0.491460000000     0.0129568  
C94      C      0.417670000000     0.674290000000     0.454670000000     0.0115668  
C95      C      0.591090000000     0.200740000000     0.497100000000    -0.024101   
C96      C      0.552310000000     0.331700000000     0.440560000000    -0.0234519  
C97      C      0.565540000000     0.327040000000     0.505140000000    -0.0231595  
C98      C      0.575990000000     0.297920000000     0.488800000000     0.0111489  
C99      C      0.568390000000     0.300750000000     0.452090000000     0.012423   
C100     C      0.570610000000     0.273280000000     0.430810000000    -0.0680222  
C101     C      0.576520000000     0.205460000000     0.432750000000    -0.023625   
C102     C      0.586640000000     0.267330000000     0.506240000000    -0.0674154  
C103     C      0.580800000000     0.242520000000     0.448220000000     0.0122043  
C104     C      0.588830000000     0.239730000000     0.484920000000     0.0118405  
C105     C      0.530380000000     0.025270000000     0.650810000000    -0.0248405  
C106     C      0.558080000000     0.974970000000     0.796580000000    -0.0240097  
C107     C      0.521960000000     0.019960000000     0.786360000000    -0.0241884  
C108     C      0.533280000000     0.012320000000     0.752190000000     0.0172305  
C109     C      0.550700000000     0.984320000000     0.757630000000     0.00833715 
C110     C      0.556850000000     0.967130000000     0.728700000000    -0.0635907  
C111     C      0.546780000000     0.966550000000     0.659240000000    -0.0234053  
C112     C      0.526150000000     0.028370000000     0.717940000000    -0.0695969  
C113     C      0.547250000000     0.981590000000     0.694240000000     0.00816157 
C114     C      0.534830000000     0.013060000000     0.689200000000     0.0174658  
C115     C      0.508120000000     0.026430000000     0.148570000000    -0.0247007  
C116     C      0.437410000000     0.951310000000     0.285410000000    -0.0235819  
C117     C      0.506990000000     0.020320000000     0.284670000000    -0.0236235  
C118     C      0.490800000000     0.007520000000     0.248050000000     0.0175645  
C119     C      0.449870000000     0.969320000000     0.247990000000     0.00857108 
C120     C      0.426300000000     0.952510000000     0.215690000000    -0.0633485  
C121     C      0.430630000000     0.965060000000     0.146190000000    -0.0239257  
C122     C      0.512540000000     0.029190000000     0.216560000000    -0.0697403  
C123     C      0.447210000000     0.975290000000     0.183840000000     0.00789005 
C124     C      0.490110000000     0.011610000000     0.184620000000     0.0174197  
C125     C      0.524520000000     0.684940000000     0.984340000000    -0.0252283  
C126     C      0.579660000000     0.852910000000     0.924290000000    -0.0250405  
C127     C      0.571930000000     0.839590000000     0.988330000000    -0.0293652  
C128     C      0.565260000000     0.801870000000     0.973010000000     0.0163611  
C129     C      0.569280000000     0.808630000000     0.936490000000     0.0077586  
C130     C      0.559970000000     0.775210000000     0.916100000000    -0.0645064  
C131     C      0.533190000000     0.693980000000     0.920390000000    -0.0245686  
C132     C      0.551310000000     0.762290000000     0.991140000000    -0.0698883  
C133     C      0.546140000000     0.735120000000     0.934530000000     0.00985373 
C134     C      0.541680000000     0.729310000000     0.970990000000     0.014769   
C135     C      0.419960000000     0.116380000000     0.027790000000    -0.0255107  
C136     C      0.475040000000     0.283030000000     0.963860000000    -0.0257277  
C137     C      0.470230000000     0.276780000000     0.028100000000    -0.0246176  
C138     C      0.455580000000     0.234740000000     0.014970000000     0.0102934  
C139     C      0.456680000000     0.238700000000     0.978230000000     0.015476   
C140     C      0.442790000000     0.204070000000     0.958790000000    -0.0701962  
C141     C      0.416220000000     0.125030000000     0.963370000000    -0.0312905  
C142     C      0.442820000000     0.195350000000     0.034460000000    -0.064158   
C143     C      0.429060000000     0.165000000000     0.978020000000     0.019153   
C144     C      0.430110000000     0.160470000000     0.014810000000     0.00947753 
C145     C      0.792840000000     0.297440000000     0.452670000000    -0.0253131  
C146     C      0.737540000000     0.127080000000     0.501020000000    -0.0287744  
C147     C      0.698220000000     0.158190000000     0.526000000000    -0.0282448  
C148     C      0.735330000000     0.189990000000     0.503160000000     0.0139068  
C149     C      0.759620000000     0.173070000000     0.490170000000     0.0128617  
C150     C      0.796280000000     0.197480000000     0.467210000000    -0.0663099  
C151     C      0.844070000000     0.273350000000     0.435680000000    -0.025781   
C152     C      0.742890000000     0.230450000000     0.491500000000    -0.0682118  
C153     C      0.805290000000     0.239010000000     0.456710000000     0.0129162  
C154     C      0.777750000000     0.253950000000     0.467480000000     0.0135238  
C155     C      0.262310000000     0.837330000000     0.455800000000    -0.0269671  
C156     C      0.206490000000     0.665770000000     0.501460000000    -0.0256194  
C157     C      0.155570000000     0.689850000000     0.518840000000    -0.0261114  
C158     C      0.195550000000     0.724890000000     0.499440000000     0.0115922  
C159     C      0.223300000000     0.710210000000     0.488560000000     0.0133513  
C160     C      0.258900000000     0.734510000000     0.465220000000    -0.0683444  
C161     C      0.303030000000     0.807230000000     0.430960000000    -0.0273483  
C162     C      0.204640000000     0.766530000000     0.489610000000    -0.0660901  
C163     C      0.266690000000     0.775250000000     0.454320000000     0.0148574  
C164     C      0.241760000000     0.791580000000     0.467240000000     0.0123725  
C165     C      0.668420000000     0.462460000000     0.425390000000    -0.0266652  
C166     C      0.851530000000     0.552140000000     0.492220000000    -0.0248816  
C167     C      0.806030000000     0.478380000000     0.512860000000    -0.0211381  
C168     C      0.778530000000     0.490700000000     0.485610000000     0.0115771  
C169     C      0.803540000000     0.533060000000     0.474440000000     0.0154524  
C170     C      0.783960000000     0.551950000000     0.448650000000    -0.0656309  
C171     C      0.707990000000     0.537780000000     0.409960000000    -0.0286688  
C172     C      0.734320000000     0.464250000000     0.470310000000    -0.0670966  
C173     C      0.738850000000     0.525620000000     0.434120000000     0.0157176  
C174     C      0.715460000000     0.482770000000     0.443850000000     0.0093628  
C175     C      0.284120000000     0.441070000000     0.524870000000    -0.0276898  
C176     C      0.185880000000     0.498250000000     0.419640000000    -0.025855   
C177     C      0.143720000000     0.423710000000     0.438710000000    -0.0258692  
C178     C      0.191170000000     0.444010000000     0.456880000000     0.00807144 
C179     C      0.215060000000     0.486590000000     0.446070000000     0.0119593  
C180     C      0.259150000000     0.513540000000     0.461510000000    -0.0642751  
C181     C      0.325300000000     0.515870000000     0.507160000000    -0.027125   
C182     C      0.210480000000     0.425870000000     0.483500000000    -0.0658369  
C183     C      0.278340000000     0.495420000000     0.488260000000     0.01247    
C184     C      0.254750000000     0.452760000000     0.498700000000     0.0149228  
C185     C      0.001290000000     0.527090000000     0.783430000000    -0.0229694  
C186     C      0.030350000000     0.477440000000     0.656210000000    -0.0250058  
C187     C      0.018870000000     0.539030000000     0.647700000000    -0.0238471  
C188     C      0.018850000000     0.524170000000     0.686070000000     0.0122835  
C189     C      0.025470000000     0.489200000000     0.690600000000     0.0155044  
C190     C      0.024370000000     0.467730000000     0.723940000000    -0.0681329  
C191     C      0.012420000000     0.465310000000     0.790150000000    -0.0242967  
C192     C      0.010890000000     0.539720000000     0.715100000000    -0.0655725  
C193     C      0.016340000000     0.483120000000     0.752770000000     0.0156702  
C194     C      0.009870000000     0.518160000000     0.748660000000     0.0120695  
C195     C      0.009520000000     0.442370000000     0.159450000000    -0.0232324  
C196     C      0.979610000000     0.495980000000     0.284300000000    -0.0242428  
C197     C      0.985460000000     0.431480000000     0.294140000000    -0.022947   
C198     C      0.989630000000     0.447350000000     0.255880000000     0.0118887  
C199     C      0.985900000000     0.483820000000     0.250560000000     0.0154197  
C200     C      0.989470000000     0.505540000000     0.217040000000    -0.0685083  
C201     C      0.001550000000     0.505820000000     0.151280000000    -0.0248986  
C202     C      0.997640000000     0.430760000000     0.227550000000    -0.0647452  
C203     C      0.997230000000     0.488960000000     0.188890000000     0.0157246  
C204     C      0.001430000000     0.452720000000     0.193810000000     0.0108608  
C205     C      0.665360000000     0.175080000000     0.886080000000    -0.0256496  
C206     C      0.861930000000     0.287670000000     0.888080000000    -0.0246257  
C207     C      0.811080000000     0.318770000000     0.884920000000    -0.0281443  
C208     C      0.783410000000     0.273270000000     0.880590000000     0.0168718  
C209     C      0.811550000000     0.254640000000     0.883250000000     0.0103065  
C210     C      0.791510000000     0.210220000000     0.885390000000    -0.0636802  
C211     C      0.711670000000     0.139320000000     0.890520000000    -0.0245833  
C212     C      0.734780000000     0.249590000000     0.879490000000    -0.0692895  
C213     C      0.742180000000     0.186180000000     0.884470000000     0.00989522 
C214     C      0.715040000000     0.205830000000     0.881510000000     0.0154126  
C215     C      0.140070000000     0.676050000000     0.051800000000    -0.0247089  
C216     C      0.335670000000     0.792370000000     0.052890000000    -0.0263579  
C217     C      0.287550000000     0.826390000000     0.048270000000    -0.0238502  
C218     C      0.258140000000     0.779370000000     0.054540000000     0.00966942 
C219     C      0.286310000000     0.760740000000     0.057500000000     0.0157455  
C220     C      0.267760000000     0.717090000000     0.059580000000    -0.0691759  
C221     C      0.192640000000     0.646780000000     0.054610000000    -0.0259207  
C222     C      0.208920000000     0.754330000000     0.053820000000    -0.0638191  
C223     C      0.219240000000     0.692420000000     0.058620000000     0.0151985  
C224     C      0.190090000000     0.710010000000     0.056100000000     0.0101692  
C225     C      0.792010000000     0.441550000000     0.027790000000    -0.0267954  
C226     C      0.693020000000     0.502290000000     0.926750000000    -0.0225663  
C227     C      0.650460000000     0.427410000000     0.944690000000    -0.0228179  
C228     C      0.697990000000     0.447150000000     0.962770000000     0.0148124  
C229     C      0.722190000000     0.489840000000     0.952490000000     0.0155352  
C230     C      0.767060000000     0.516040000000     0.967270000000    -0.0648902  
C231     C      0.834400000000     0.516380000000     0.010540000000    -0.0271987  
C232     C      0.717480000000     0.428180000000     0.988350000000    -0.0648782  
C233     C      0.786540000000     0.497040000000     0.992910000000     0.0124648  
C234     C      0.762380000000     0.454320000000     0.003000000000     0.0152041  
C235     C      0.207790000000     0.533050000000     0.915920000000    -0.0224006  
C236     C      0.305980000000     0.478170000000     0.023060000000    -0.0283892  
C237     C      0.351060000000     0.550980000000     0.000520000000    -0.0281817  
C238     C      0.302810000000     0.531430000000     0.983130000000     0.0106627  
C239     C      0.278060000000     0.489360000000     0.995260000000     0.010188   
C240     C      0.234320000000     0.462060000000     0.979810000000    -0.0674012  
C241     C      0.169560000000     0.457770000000     0.932570000000    -0.0226178  
C242     C      0.283160000000     0.549290000000     0.956340000000    -0.0652221  
C243     C      0.215560000000     0.479470000000     0.952260000000     0.0148087  
C244     C      0.238410000000     0.522140000000     0.941700000000     0.016013   
C245     C      0.829040000000     0.792890000000     0.550010000000    -0.025154   
C246     C      0.633380000000     0.679470000000     0.553660000000    -0.0253614  
C247     C      0.684570000000     0.648590000000     0.558780000000    -0.028098   
C248     C      0.712090000000     0.694510000000     0.560980000000     0.0160096  
C249     C      0.683670000000     0.712910000000     0.557600000000     0.00923809 
C250     C      0.703280000000     0.757300000000     0.553920000000    -0.0638809  
C251     C      0.782450000000     0.828350000000     0.546220000000    -0.0237794  
C252     C      0.760610000000     0.718470000000     0.560590000000    -0.0689809  
C253     C      0.752500000000     0.781610000000     0.553690000000     0.0100792  
C254     C      0.779910000000     0.762220000000     0.556680000000     0.0156074  
C255     C      0.167220000000     0.176290000000     0.392710000000    -0.0258909  
C256     C      0.363050000000     0.289970000000     0.391680000000    -0.0245405  
C257     C      0.311500000000     0.320440000000     0.387190000000    -0.0280977  
C258     C      0.284280000000     0.274760000000     0.383900000000     0.0161666  
C259     C      0.312810000000     0.256480000000     0.387040000000     0.00968601 
C260     C      0.293190000000     0.212060000000     0.389910000000    -0.0637811  
C261     C      0.213770000000     0.140830000000     0.396230000000    -0.0238626  
C262     C      0.235750000000     0.250760000000     0.383610000000    -0.0697469  
C263     C      0.243900000000     0.187690000000     0.389530000000     0.00962552 
C264     C      0.216470000000     0.207050000000     0.386680000000     0.0150472  
C265     C      0.584500000000     0.872240000000     0.417280000000    -0.0260888  
C266     C      0.779730000000     0.961700000000     0.395730000000    -0.0246042  
C267     C      0.758890000000     0.926790000000     0.455230000000    -0.0242899  
C268     C      0.716450000000     0.918220000000     0.431890000000     0.0124123  
C269     C      0.728400000000     0.939880000000     0.398640000000     0.0148941  
C270     C      0.694430000000     0.940680000000     0.373220000000    -0.0663013  
C271     C      0.605910000000     0.917270000000     0.363490000000    -0.0283458  
C272     C      0.669660000000     0.893260000000     0.440450000000    -0.0680845  
C273     C      0.647790000000     0.917150000000     0.382480000000     0.0188719  
C274     C      0.635700000000     0.892730000000     0.414410000000     0.0132842  
C275     C      0.237230000000     0.050630000000     0.482290000000    -0.0238073  
C276     C      0.397730000000     0.071430000000     0.569500000000    -0.0281109  
C277     C      0.413600000000     0.109330000000     0.512150000000    -0.025644   
C278     C      0.363190000000     0.089820000000     0.517870000000     0.0157587  
C279     C      0.354250000000     0.069430000000     0.551630000000     0.0175433  
C280     C      0.308690000000     0.046900000000     0.563430000000    -0.0649593  
C281     C      0.221560000000     0.022300000000     0.544000000000    -0.0216879  
C282     C      0.327040000000     0.086160000000     0.492850000000    -0.0668438  
C283     C      0.272500000000     0.044530000000     0.538820000000     0.0139194  
C284     C      0.281390000000     0.062310000000     0.504110000000     0.0137465  
C285     C      0.060940000000     0.845300000000     0.403350000000    -0.0260205  
C286     C      0.023830000000     0.686370000000     0.475980000000    -0.0250719  
C287     C      0.014270000000     0.685730000000     0.411420000000    -0.0251558  
C288     C      0.029990000000     0.728850000000     0.422370000000     0.0115737  
C289     C      0.036610000000     0.728910000000     0.459080000000     0.0141027  
C290     C      0.053250000000     0.765640000000     0.476330000000    -0.0696131  
C291     C      0.077350000000     0.844330000000     0.467220000000    -0.0284764  
C292     C      0.037790000000     0.765940000000     0.400930000000    -0.0654254  
C293     C      0.061840000000     0.802490000000     0.455010000000     0.0170767  
C294     C      0.053490000000     0.802810000000     0.418480000000     0.0119447  
C295     C      0.974880000000     0.284320000000     0.462620000000    -0.0248211  
C296     C      0.919800000000     0.116430000000     0.522490000000    -0.0257787  
C297     C      0.928790000000     0.130380000000     0.458630000000    -0.0263707  
C298     C      0.934030000000     0.167560000000     0.473870000000     0.0140863  
C299     C      0.929270000000     0.160540000000     0.510310000000     0.0101692  
C300     C      0.937680000000     0.193770000000     0.530640000000    -0.064672   
C301     C      0.964030000000     0.275070000000     0.526250000000    -0.0245494  
C302     C      0.948080000000     0.207150000000     0.455810000000    -0.0702841  
C303     C      0.951520000000     0.233920000000     0.512230000000     0.0103261  
C304     C      0.956960000000     0.239910000000     0.475900000000     0.0138843  
C305     C      0.933200000000     0.982320000000     0.645190000000    -0.0284969  
C306     C      0.956610000000     0.929850000000     0.791490000000    -0.0252564  
C307     C      0.938020000000     0.987220000000     0.782430000000    -0.0283402  
C308     C      0.939280000000     0.972900000000     0.747570000000     0.0141638  
C309     C      0.952850000000     0.942190000000     0.752880000000     0.012444   
C310     C      0.963570000000     0.928140000000     0.724240000000    -0.0662362  
C311     C      0.970590000000     0.938410000000     0.655780000000    -0.02531    
C312     C      0.930750000000     0.987850000000     0.712990000000    -0.0700845  
C313     C      0.957360000000     0.944670000000     0.689850000000     0.0129137  
C314     C      0.939030000000     0.971980000000     0.684180000000     0.0142307  
C315     C      0.052420000000     0.967980000000     0.159350000000    -0.0241124  
C316     C      0.019530000000     0.020310000000     0.283800000000    -0.0264995  
C317     C      0.058050000000     0.977410000000     0.296140000000    -0.0235599  
C318     C      0.051690000000     0.986200000000     0.256890000000     0.00809659 
C319     C      0.032850000000     0.013080000000     0.250250000000     0.0184009  
C320     C      0.026350000000     0.028510000000     0.215510000000    -0.0694324  
C321     C      0.033530000000     0.025140000000     0.148710000000    -0.0250269  
C322     C      0.059990000000     0.969440000000     0.228690000000    -0.0634057  
C323     C      0.037180000000     0.013690000000     0.187500000000     0.0179376  
C324     C      0.051040000000     0.983210000000     0.193730000000     0.00849323 
C325     C      0.758480000000     0.829830000000     0.952730000000    -0.0287019  
C326     C      0.707970000000     0.664050000000     0.014320000000    -0.0261416  
C327     C      0.654170000000     0.688010000000     0.024740000000    -0.0273252  
C328     C      0.693890000000     0.721660000000     0.004200000000     0.0120879  
C329     C      0.723040000000     0.706670000000     0.996870000000     0.0126279  
C330     C      0.758190000000     0.728680000000     0.972780000000    -0.0684776  
C331     C      0.800080000000     0.797640000000     0.932900000000    -0.0284297  
C332     C      0.701570000000     0.761990000000     0.990360000000    -0.0667147  
C333     C      0.764350000000     0.767830000000     0.957700000000     0.0131202  
C334     C      0.738590000000     0.785090000000     0.967540000000     0.0130963  
C335     C      0.296290000000     0.301670000000     0.944960000000    -0.0255969  
C336     C      0.235440000000     0.128290000000     0.984860000000    -0.0265055  
C337     C      0.195600000000     0.158470000000     0.010830000000    -0.027013   
C338     C      0.233320000000     0.190960000000     0.988840000000     0.0152787  
C339     C      0.257820000000     0.174550000000     0.975380000000     0.0127028  
C340     C      0.295890000000     0.200030000000     0.953930000000    -0.0655654  
C341     C      0.347100000000     0.277610000000     0.927100000000    -0.0254361  
C342     C      0.242370000000     0.232240000000     0.979240000000    -0.0682249  
C343     C      0.306270000000     0.242230000000     0.945480000000     0.0126194  
C344     C      0.278780000000     0.256950000000     0.956730000000     0.0143175  
C345     C      0.893090000000     0.054810000000     0.074140000000    -0.0288127  
C346     C      0.741520000000     0.050110000000     0.983720000000    -0.023525   
C347     C      0.721870000000     0.020390000000     0.044680000000    -0.0219385  
C348     C      0.772700000000     0.039200000000     0.040700000000     0.0152245  
C349     C      0.784210000000     0.058180000000     0.006570000000     0.0130711  
C350     C      0.830660000000     0.079810000000     0.996780000000    -0.0679288  
C351     C      0.915110000000     0.096760000000     0.018600000000    -0.0257037  
C352     C      0.806360000000     0.037410000000     0.065860000000    -0.0663499  
C353     C      0.864550000000     0.079590000000     0.022560000000     0.012321   
C354     C      0.852440000000     0.057350000000     0.055420000000     0.019215   
C355     C      0.272040000000     0.934520000000     0.897790000000    -0.0239525  
C356     C      0.081050000000     0.855130000000     0.931530000000    -0.026621   
C357     C      0.097040000000     0.890150000000     0.873000000000    -0.0283983  
C358     C      0.140020000000     0.891430000000     0.891160000000     0.0164836  
C359     C      0.131180000000     0.872970000000     0.925520000000     0.015606   
C360     C      0.167370000000     0.876860000000     0.950610000000    -0.0686367  
C361     C      0.257190000000     0.910590000000     0.960370000000    -0.0233602  
C362     C      0.185260000000     0.911760000000     0.878820000000    -0.066418   
C363     C      0.212830000000     0.898710000000     0.938760000000     0.0125034  
C364     C      0.221370000000     0.914180000000     0.903500000000     0.0134556  
C365     C      0.905050000000     0.762880000000     0.953330000000    -0.0237182  
C366     C      0.950140000000     0.635780000000     0.007580000000    -0.0228736  
C367     C      0.929550000000     0.636990000000     0.943810000000    -0.0228432  
C368     C      0.919810000000     0.665940000000     0.961040000000     0.0117653  
C369     C      0.931610000000     0.665090000000     0.997300000000     0.0126376  
C370     C      0.931860000000     0.693650000000     0.018720000000    -0.0677019  
C371     C      0.926790000000     0.761850000000     0.016790000000    -0.0239979  
C372     C      0.907240000000     0.695480000000     0.944270000000    -0.0673336  
C373     C      0.919820000000     0.723480000000     0.001910000000     0.0128557  
C374     C      0.907660000000     0.724220000000     0.965690000000     0.0120249  
C375     C      0.087640000000     0.191590000000     0.988190000000    -0.0241131  
C376     C      0.039760000000     0.317960000000     0.935500000000    -0.0237157  
C377     C      0.059070000000     0.315340000000     0.999440000000    -0.023067   
C378     C      0.067690000000     0.285770000000     0.982070000000     0.0118868  
C379     C      0.056300000000     0.287180000000     0.945780000000     0.0134404  
C380     C      0.057010000000     0.259400000000     0.923950000000    -0.0679095  
C381     C      0.065790000000     0.193000000000     0.924760000000    -0.0249458  
C382     C      0.081150000000     0.256640000000     0.998450000000    -0.067279   
C383     C      0.069930000000     0.229960000000     0.940380000000     0.013375   
C384     C      0.082000000000     0.228890000000     0.976580000000     0.0118699  
H1       H      0.038820000000     0.983310000000     0.890680000000     0.195283   
H2       H      0.966280000000     0.052410000000     0.966380000000     0.195532   
H3       H      0.906190000000     0.885580000000     0.991270000000     0.196209   
H4       H      0.084800000000     0.992120000000     0.034040000000     0.192231   
H5       H      0.932760000000     0.059380000000     0.901110000000     0.129946   
H6       H      0.855490000000     0.012000000000     0.959110000000     0.202523   
H7       H      0.853830000000     0.900410000000     0.034020000000     0.127268   
H8       H      0.914610000000     0.886620000000     0.079420000000     0.191912   
H9       H      0.061520000000     0.894000000000     0.034110000000     0.138312   
H10      H      0.157190000000     0.960720000000     0.979990000000     0.205357   
H11      H      0.136680000000     0.051490000000     0.902880000000     0.13523    
H12      H      0.092420000000     0.098150000000     0.876570000000     0.19793    
H13      H      0.933900000000     0.851520000000     0.083640000000     0.201664   
H14      H      0.145660000000     0.972620000000     0.017570000000     0.189988   
H15      H      0.058450000000     0.066720000000     0.844900000000     0.198631   
H16      H      0.849940000000     0.984930000000     0.924750000000     0.200695   
H17      H      0.886490000000     0.912280000000     0.454350000000     0.198227   
H18      H      0.035490000000     0.049890000000     0.395600000000     0.197581   
H19      H      0.008890000000     0.042880000000     0.537870000000     0.202057   
H20      H      0.060330000000     0.935130000000     0.495600000000     0.193345   
H21      H      0.947050000000     0.053930000000     0.372200000000     0.131942   
H22      H      0.041170000000     0.145480000000     0.415860000000     0.191345   
H23      H      0.106340000000     0.123650000000     0.511690000000     0.137533   
H24      H      0.080230000000     0.052030000000     0.590300000000     0.19706    
H25      H      0.048630000000     0.915410000000     0.569390000000     0.125036   
H26      H      0.987520000000     0.846390000000     0.533590000000     0.18579    
H27      H      0.925100000000     0.852390000000     0.414150000000     0.143034   
H28      H      0.862210000000     0.902230000000     0.377990000000     0.197976   
H29      H      0.125410000000     0.069620000000     0.564530000000     0.198657   
H30      H      0.944490000000     0.811790000000     0.507870000000     0.201379   
H31      H      0.908110000000     0.908810000000     0.357470000000     0.200148   
H32      H      0.056450000000     0.162170000000     0.456810000000     0.198725   
H33      H      0.943080000000     0.438850000000     0.044840000000     0.199389   
H34      H      0.926940000000     0.449190000000     0.899300000000     0.196177   
H35      H      0.056120000000     0.588720000000     0.964130000000     0.196559   
H36      H      0.084680000000     0.452880000000     0.975320000000     0.199889   
H37      H      0.845630000000     0.459550000000     0.945380000000     0.138093   
H38      H      0.888690000000     0.505880000000     0.883830000000     0.189574   
H39      H      0.067070000000     0.602430000000     0.885520000000     0.133488   
H40      H      0.188790000000     0.614940000000     0.952850000000     0.199142   
H41      H      0.161870000000     0.524120000000     0.019750000000     0.13849    
H42      H      0.115320000000     0.442210000000     0.045660000000     0.191221   
H43      H      0.939850000000     0.365120000000     0.062130000000     0.129198   
H44      H      0.871650000000     0.338940000000     0.008450000000     0.197512   
H45      H      0.147180000000     0.620730000000     0.927290000000     0.189251   
H46      H      0.089180000000     0.430340000000     0.084110000000     0.202417   
H47      H      0.828740000000     0.350690000000     0.009810000000     0.200999   
H48      H      0.923600000000     0.550140000000     0.859740000000     0.201763   
H49      H      0.945270000000     0.461730000000     0.547190000000     0.201067   
H50      H      0.916230000000     0.446080000000     0.403100000000     0.192367   
H51      H      0.066260000000     0.587030000000     0.450830000000     0.19682    
H52      H      0.065610000000     0.436530000000     0.482570000000     0.191341   
H53      H      0.817330000000     0.433450000000     0.439100000000     0.134588   
H54      H      0.903590000000     0.542920000000     0.390130000000     0.207821   
H55      H      0.070160000000     0.590980000000     0.373980000000     0.127694   
H56      H      0.152900000000     0.593760000000     0.411520000000     0.189589   
H57      H      0.144070000000     0.480530000000     0.494460000000     0.132399   
H58      H      0.096950000000     0.453870000000     0.574330000000     0.203748   
H59      H      0.926590000000     0.378120000000     0.569510000000     0.12731    
H60      H      0.838850000000     0.379060000000     0.530920000000     0.189704   
H61      H      0.190320000000     0.590010000000     0.443470000000     0.19892    
H62      H      0.083190000000     0.412290000000     0.551890000000     0.193421   
H63      H      0.803550000000     0.382890000000     0.497120000000     0.189699   
H64      H      0.905450000000     0.515780000000     0.358470000000     0.198673   
H65      H      0.491210000000     0.917510000000     0.910760000000     0.197309   
H66      H      0.470450000000     0.929010000000     0.050770000000     0.194872   
H67      H      0.608370000000     0.063710000000     0.979160000000     0.195428   
H68      H      0.428370000000     0.023040000000     0.939410000000     0.193132   
H69      H      0.487490000000     0.851150000000     0.045590000000     0.12972    
H70      H      0.557680000000     0.929600000000     0.078630000000     0.188121   
H71      H      0.602570000000     0.087680000000     0.051240000000     0.135857   
H72      H      0.564480000000     0.136510000000     0.005470000000     0.199766   
H73      H      0.486820000000     0.092250000000     0.891310000000     0.125427   
H74      H      0.392370000000     0.974160000000     0.838320000000     0.197095   
H75      H      0.419830000000     0.903850000000     0.858500000000     0.133942   
H76      H      0.404140000000     0.833200000000     0.937890000000     0.204049   
H77      H      0.610270000000     0.144250000000     0.984110000000     0.193982   
H78      H      0.414620000000     0.020210000000     0.856360000000     0.188737   
H79      H      0.455550000000     0.835240000000     0.934790000000     0.193468   
H80      H      0.576730000000     0.968640000000     0.105400000000     0.199639   
H81      H      0.418100000000     0.981290000000     0.402300000000     0.19654    
H82      H      0.450850000000     0.978510000000     0.547670000000     0.192834   
H83      H      0.525160000000     0.910290000000     0.472690000000     0.194154   
H84      H      0.594900000000     0.079160000000     0.456280000000     0.195136   
H85      H      0.354810000000     0.922530000000     0.534200000000     0.130732   
H86      H      0.390130000000     0.867200000000     0.555160000000     0.196624   
H87      H      0.550070000000     0.894980000000     0.539060000000     0.129281   
H88      H      0.637240000000     0.947640000000     0.486250000000     0.200536   
H89      H      0.644210000000     0.060160000000     0.410860000000     0.125508   
H90      H      0.602680000000     0.107010000000     0.379360000000     0.185768   
H91      H      0.446730000000     0.080020000000     0.403710000000     0.139452   
H92      H      0.363700000000     0.027620000000     0.442120000000     0.199749   
H93      H      0.635740000000     0.968500000000     0.522630000000     0.199687   
H94      H      0.561900000000     0.114760000000     0.354440000000     0.20103    
H95      H      0.342570000000     0.984750000000     0.419610000000     0.194314   
H96      H      0.424870000000     0.889450000000     0.590650000000     0.197986   
H97      H      0.443240000000     0.459830000000     0.047550000000     0.202026   
H98      H      0.424570000000     0.451150000000     0.902770000000     0.196      
H99      H      0.571780000000     0.588470000000     0.957600000000     0.198247   
H100     H      0.568520000000     0.436960000000     0.987040000000     0.200695   
H101     H      0.345240000000     0.479330000000     0.946860000000     0.143025   
H102     H      0.415350000000     0.552340000000     0.891720000000     0.204572   
H103     H      0.581200000000     0.595120000000     0.880720000000     0.128263   
H104     H      0.662270000000     0.598080000000     0.923380000000     0.189306   
H105     H      0.653120000000     0.510840000000     0.029350000000     0.138699   
H106     H      0.582470000000     0.411390000000     0.056160000000     0.195553   
H107     H      0.421300000000     0.374090000000     0.065540000000     0.128134   
H108     H      0.332070000000     0.377450000000     0.021730000000     0.190158   
H109     H      0.696600000000     0.590620000000     0.956100000000     0.19673    
H110     H      0.589850000000     0.447240000000     0.083250000000     0.199051   
H111     H      0.302920000000     0.389150000000     0.987200000000     0.195875   
H112     H      0.416490000000     0.524820000000     0.860070000000     0.200091   
H113     H      0.439480000000     0.443500000000     0.546770000000     0.202196   
H114     H      0.422450000000     0.450130000000     0.401500000000     0.19572    
H115     H      0.546020000000     0.593630000000     0.463680000000     0.198491   
H116     H      0.583870000000     0.462960000000     0.477420000000     0.191795   
H117     H      0.337900000000     0.456610000000     0.446040000000     0.137885   
H118     H      0.409480000000     0.547720000000     0.363350000000     0.201317   
H119     H      0.556260000000     0.605070000000     0.383630000000     0.13689    
H120     H      0.641000000000     0.638940000000     0.454350000000     0.195808   
H121     H      0.661590000000     0.519600000000     0.491560000000     0.125935   
H122     H      0.617450000000     0.467310000000     0.553040000000     0.189292   
H123     H      0.449650000000     0.351580000000     0.543050000000     0.140571   
H124     H      0.369570000000     0.355740000000     0.531430000000     0.192603   
H125     H      0.642100000000     0.619880000000     0.416780000000     0.198532   
H126     H      0.585430000000     0.427680000000     0.582470000000     0.201684   
H127     H      0.330510000000     0.339730000000     0.496790000000     0.202705   
H128     H      0.379140000000     0.500190000000     0.384970000000     0.188583   
H129     H      0.528380000000     0.545460000000     0.649190000000     0.0449435  
H130     H      0.546410000000     0.454970000000     0.659280000000     0.0426429  
H131     H      0.508040000000     0.412060000000     0.731200000000     0.0441026  
H132     H      0.486670000000     0.540010000000     0.716630000000     0.0449937  
H133     H      0.515070000000     0.534520000000     0.792680000000     0.0497945  
H134     H      0.463740000000     0.407530000000     0.799600000000     0.0425898  
H135     H      0.464900000000     0.511210000000     0.643730000000     0.0441414  
H136     H      0.483280000000     0.419430000000     0.653450000000     0.0434597  
H137     H      0.527590000000     0.439290000000     0.804890000000     0.0457307  
H138     H      0.451420000000     0.500820000000     0.788280000000     0.038687   
H139     H      0.539390000000     0.465990000000     0.303950000000     0.0465329  
H140     H      0.522460000000     0.558280000000     0.291450000000     0.0434632  
H141     H      0.499650000000     0.564720000000     0.212450000000     0.0436189  
H142     H      0.522140000000     0.437340000000     0.231210000000     0.0446006  
H143     H      0.559670000000     0.476360000000     0.159020000000     0.0399912  
H144     H      0.480760000000     0.535140000000     0.140270000000     0.0430576  
H145     H      0.476220000000     0.432090000000     0.295950000000     0.0435824  
H146     H      0.459450000000     0.523660000000     0.283460000000     0.0403509  
H147     H      0.544590000000     0.567600000000     0.144790000000     0.0435111  
H148     H      0.496300000000     0.440930000000     0.155240000000     0.0467891  
H149     H      0.373010000000     0.767740000000     0.432270000000     0.0389011  
H150     H      0.390030000000     0.761040000000     0.525020000000     0.0413493  
H151     H      0.431240000000     0.699490000000     0.540570000000     0.0443485  
H152     H      0.406350000000     0.709380000000     0.407650000000     0.0431679  
H153     H      0.394000000000     0.619510000000     0.426260000000     0.0393133  
H154     H      0.473930000000     0.654620000000     0.518330000000     0.0455466  
H155     H      0.435440000000     0.792610000000     0.424540000000     0.0480971  
H156     H      0.453810000000     0.785270000000     0.524410000000     0.0453392  
H157     H      0.412420000000     0.613710000000     0.520570000000     0.0448166  
H158     H      0.454860000000     0.660440000000     0.420100000000     0.0430486  
H159     H      0.597640000000     0.351510000000     0.518350000000     0.0374734  
H160     H      0.578250000000     0.358340000000     0.423590000000     0.0434936  
H161     H      0.561960000000     0.274150000000     0.402420000000     0.0429861  
H162     H      0.590230000000     0.263550000000     0.535020000000     0.0430951  
H163     H      0.627010000000     0.208200000000     0.507390000000     0.0381536  
H164     H      0.542420000000     0.189430000000     0.417420000000     0.0424735  
H165     H      0.537270000000     0.309240000000     0.524020000000     0.0420837  
H166     H      0.517300000000     0.316290000000     0.426390000000     0.046122   
H167     H      0.606210000000     0.214790000000     0.415930000000     0.0380268  
H168     H      0.565230000000     0.182000000000     0.517630000000     0.050655   
H169     H      0.483630000000     0.007210000000     0.786890000000     0.0422503  
H170     H      0.538880000000     0.940430000000     0.803880000000     0.0359022  
H171     H      0.567760000000     0.943320000000     0.732810000000     0.0431179  
H172     H      0.513670000000     0.051090000000     0.713830000000     0.0440239  
H173     H      0.495140000000     0.021970000000     0.643660000000     0.0393276  
H174     H      0.581460000000     0.970160000000     0.655030000000     0.0425208  
H175     H      0.541320000000     0.054110000000     0.790550000000     0.0425804  
H176     H      0.595920000000     0.988430000000     0.804290000000     0.0452794  
H177     H      0.518730000000     0.933330000000     0.657630000000     0.042181   
H178     H      0.558320000000     0.057950000000     0.643900000000     0.0478825  
H179     H      0.505520000000     0.049480000000     0.287810000000     0.043609   
H180     H      0.402120000000     0.945950000000     0.290120000000     0.0400367  
H181     H      0.393760000000     0.923120000000     0.215360000000     0.043131   
H182     H      0.545620000000     0.058090000000     0.216930000000     0.0437107  
H183     H      0.513960000000     0.058940000000     0.140870000000     0.0406698  
H184     H      0.423370000000     0.932620000000     0.142640000000     0.0383603  
H185     H      0.542820000000     0.024780000000     0.291060000000     0.0419439  
H186     H      0.439690000000     0.921790000000     0.291170000000     0.0453106  
H187     H      0.399370000000     0.968960000000     0.138420000000     0.0444112  
H188     H      0.540780000000     0.024710000000     0.147700000000     0.0441789  
H189     H      0.604230000000     0.852690000000     0.006040000000     0.042826   
H190     H      0.615350000000     0.871670000000     0.914360000000     0.043349   
H191     H      0.562260000000     0.779920000000     0.887460000000     0.0429449  
H192     H      0.546790000000     0.757110000000     0.019550000000     0.0447294  
H193     H      0.549550000000     0.682300000000     0.005240000000     0.0457071  
H194     H      0.502140000000     0.684290000000     0.901420000000     0.0417421  
H195     H      0.540750000000     0.831220000000     0.003090000000     0.0484715  
H196     H      0.552860000000     0.852680000000     0.903590000000     0.0344047  
H197     H      0.563350000000     0.696230000000     0.907810000000     0.0432471  
H198     H      0.489280000000     0.671470000000     0.994780000000     0.0445693  
H199     H      0.502610000000     0.287100000000     0.045660000000     0.0396879  
H200     H      0.509950000000     0.295110000000     0.953290000000     0.0435878  
H201     H      0.443710000000     0.207520000000     0.930040000000     0.045096   
H202     H      0.443630000000     0.192190000000     0.063280000000     0.0433981  
H203     H      0.448580000000     0.117160000000     0.046810000000     0.0381677  
H204     H      0.380140000000     0.111420000000     0.951000000000     0.0386185  
H205     H      0.441460000000     0.275420000000     0.041990000000     0.0458646  
H206     H      0.450540000000     0.286100000000     0.942760000000     0.0468187  
H207     H      0.441080000000     0.130590000000     0.943120000000     0.0496388  
H208     H      0.385810000000     0.098880000000     0.040310000000     0.0425621  
H209     H      0.665270000000     0.159440000000     0.518470000000     0.0489797  
H210     H      0.729210000000     0.109450000000     0.477020000000     0.0510786  
H211     H      0.816260000000     0.184760000000     0.457770000000     0.0462417  
H212     H      0.722350000000     0.242940000000     0.500410000000     0.0415756  
H213     H      0.767470000000     0.298530000000     0.431240000000     0.0362965  
H214     H      0.878060000000     0.278350000000     0.448670000000     0.0481914  
H215     H      0.708770000000     0.163490000000     0.554570000000     0.0435038  
H216     H      0.760920000000     0.119940000000     0.520590000000     0.0430732  
H217     H      0.840370000000     0.266000000000     0.407570000000     0.0405056  
H218     H      0.796240000000     0.316400000000     0.474650000000     0.0438274  
H219     H      0.122240000000     0.686690000000     0.506010000000     0.0444436  
H220     H      0.204500000000     0.648190000000     0.478890000000     0.0434645  
H221     H      0.279340000000     0.722210000000     0.455820000000     0.0427824  
H222     H      0.183920000000     0.778710000000     0.498700000000     0.0438931  
H223     H      0.237420000000     0.843640000000     0.437340000000     0.0408407  
H224     H      0.336930000000     0.808360000000     0.439510000000     0.0521022  
H225     H      0.158850000000     0.695140000000     0.547490000000     0.0414844  
H226     H      0.230050000000     0.662890000000     0.523650000000     0.0412501  
H227     H      0.293210000000     0.800350000000     0.402600000000     0.0424716  
H228     H      0.272180000000     0.855410000000     0.479690000000     0.0488201  
H229     H      0.805420000000     0.449800000000     0.505160000000     0.0365561  
H230     H      0.878120000000     0.566960000000     0.471780000000     0.047611   
H231     H      0.802590000000     0.585340000000     0.440530000000     0.0448955  
H232     H      0.715420000000     0.430950000000     0.478770000000     0.0392282  
H233     H      0.667710000000     0.444190000000     0.403810000000     0.041759   
H234     H      0.706740000000     0.564230000000     0.420480000000     0.0497113  
H235     H      0.791780000000     0.472400000000     0.539490000000     0.0373746  
H236     H      0.856080000000     0.575320000000     0.510720000000     0.0420671  
H237     H      0.720780000000     0.546940000000     0.382610000000     0.0403506  
H238     H      0.641900000000     0.441800000000     0.445030000000     0.0368968  
H239     H      0.116950000000     0.406700000000     0.458870000000     0.0316299  
H240     H      0.184430000000     0.525340000000     0.428370000000     0.037012   
H241     H      0.277530000000     0.546900000000     0.453170000000     0.0425176  
H242     H      0.192030000000     0.392560000000     0.491970000000     0.0421618  
H243     H      0.270150000000     0.433480000000     0.551770000000     0.0395445  
H244     H      0.352410000000     0.534830000000     0.487530000000     0.0466649  
H245     H      0.141220000000     0.402120000000     0.419390000000     0.0422624  
H246     H      0.200030000000     0.505950000000     0.392800000000     0.0395448  
H247     H      0.326300000000     0.535800000000     0.527440000000     0.0432816  
H248     H      0.285090000000     0.413580000000     0.516210000000     0.0500324  
H249     H      0.048880000000     0.571100000000     0.642580000000     0.0436372  
H250     H      0.065640000000     0.480890000000     0.655010000000     0.0421399  
H251     H      0.028750000000     0.439990000000     0.727190000000     0.0453221  
H252     H      0.005090000000     0.566680000000     0.711690000000     0.0435418  
H253     H      0.029200000000     0.558640000000     0.790790000000     0.0438777  
H254     H      0.982630000000     0.432670000000     0.792520000000     0.0442651  
H255     H      0.985100000000     0.538100000000     0.638770000000     0.0430626  
H256     H      0.002430000000     0.444730000000     0.651830000000     0.0480272  
H257     H      0.045770000000     0.466360000000     0.800830000000     0.0471267  
H258     H      0.966150000000     0.524490000000     0.782680000000     0.04012    
H259     H      0.017580000000     0.430290000000     0.305010000000     0.0457632  
H260     H      0.008950000000     0.527680000000     0.289900000000     0.0491928  
H261     H      0.986580000000     0.534050000000     0.213080000000     0.0448249  
H262     H      0.000920000000     0.402460000000     0.231570000000     0.043262   
H263     H      0.044280000000     0.444120000000     0.160520000000     0.0398941  
H264     H      0.968880000000     0.506100000000     0.140540000000     0.0441853  
H265     H      0.953810000000     0.400180000000     0.297820000000     0.0417253  
H266     H      0.945320000000     0.495140000000     0.283510000000     0.0385802  
H267     H      0.032420000000     0.537790000000     0.148350000000     0.044661   
H268     H      0.981030000000     0.410830000000     0.152590000000     0.0408914  
H269     H      0.798390000000     0.326040000000     0.907710000000     0.0505195  
H270     H      0.878410000000     0.279090000000     0.912550000000     0.0420575  
H271     H      0.813090000000     0.195160000000     0.889280000000     0.0430817  
H272     H      0.713310000000     0.264500000000     0.879230000000     0.044867   
H273     H      0.653120000000     0.182670000000     0.908960000000     0.0441297  
H274     H      0.711510000000     0.123260000000     0.867450000000     0.0447462  
H275     H      0.808560000000     0.337380000000     0.860050000000     0.040134   
H276     H      0.881190000000     0.292130000000     0.864230000000     0.0433575  
H277     H      0.723330000000     0.127100000000     0.915670000000     0.0407231  
H278     H      0.643970000000     0.174950000000     0.861230000000     0.0452903  
H279     H      0.287120000000     0.842310000000     0.071220000000     0.0423421  
H280     H      0.357250000000     0.793090000000     0.077760000000     0.0417693  
H281     H      0.290050000000     0.703000000000     0.059840000000     0.0438061  
H282     H      0.186510000000     0.768560000000     0.050030000000     0.0426876  
H283     H      0.120970000000     0.671400000000     0.075790000000     0.0432826  
H284     H      0.205290000000     0.639850000000     0.031590000000     0.0436279  
H285     H      0.275380000000     0.838000000000     0.023060000000     0.04284    
H286     H      0.348440000000     0.785190000000     0.030090000000     0.049125   
H287     H      0.196230000000     0.628650000000     0.079440000000     0.0397394  
H288     H      0.122830000000     0.683820000000     0.027380000000     0.0394952  
H289     H      0.623730000000     0.410540000000     0.964900000000     0.0370104  
H290     H      0.691310000000     0.528720000000     0.936560000000     0.0396323  
H291     H      0.785900000000     0.549420000000     0.959090000000     0.0417216  
H292     H      0.698830000000     0.394730000000     0.996290000000     0.0426878  
H293     H      0.779440000000     0.434150000000     0.055160000000     0.0382433  
H294     H      0.860660000000     0.535080000000     0.990260000000     0.0460053  
H295     H      0.647500000000     0.405830000000     0.925180000000     0.042324   
H296     H      0.707310000000     0.511180000000     0.899900000000     0.0386802  
H297     H      0.837290000000     0.536340000000     0.031510000000     0.0418997  
H298     H      0.791270000000     0.413630000000     0.018370000000     0.0459707  
H299     H      0.355340000000     0.573760000000     0.019340000000     0.0423253  
H300     H      0.293260000000     0.475350000000     0.049760000000     0.0391676  
H301     H      0.215910000000     0.428860000000     0.988720000000     0.0398457  
H302     H      0.301680000000     0.582420000000     0.947300000000     0.0421632  
H303     H      0.203490000000     0.558130000000     0.926020000000     0.0423933  
H304     H      0.170460000000     0.438360000000     0.912660000000     0.0417916  
H305     H      0.377340000000     0.566490000000     0.979870000000     0.0433062  
H306     H      0.303370000000     0.447890000000     0.017730000000     0.0408771  
H307     H      0.142020000000     0.438040000000     0.951690000000     0.035716   
H308     H      0.222600000000     0.543380000000     0.889240000000     0.0384911  
H309     H      0.687360000000     0.631550000000     0.584570000000     0.0437216  
H310     H      0.614460000000     0.676020000000     0.577440000000     0.0435344  
H311     H      0.681390000000     0.772060000000     0.549700000000     0.0424389  
H312     H      0.782230000000     0.703670000000     0.561100000000     0.0442429  
H313     H      0.852050000000     0.794140000000     0.574110000000     0.0412598  
H314     H      0.769520000000     0.839600000000     0.521170000000     0.0399651  
H315     H      0.697150000000     0.639780000000     0.536880000000     0.0499211  
H316     H      0.616430000000     0.686920000000     0.528890000000     0.0377559  
H317     H      0.783730000000     0.845290000000     0.569040000000     0.0442425  
H318     H      0.839680000000     0.784360000000     0.526800000000     0.0448387  
H319     H      0.298320000000     0.328350000000     0.409280000000     0.0478042  
H320     H      0.379720000000     0.281990000000     0.416350000000     0.0410448  
H321     H      0.315070000000     0.197300000000     0.394010000000     0.0424288  
H322     H      0.214060000000     0.265460000000     0.383290000000     0.0427915  
H323     H      0.156140000000     0.184350000000     0.415970000000     0.0431055  
H324     H      0.212850000000     0.124430000000     0.373160000000     0.0434482  
H325     H      0.309020000000     0.338200000000     0.361750000000     0.0392725  
H326     H      0.382410000000     0.294230000000     0.367940000000     0.0427309  
H327     H      0.226300000000     0.129090000000     0.421180000000     0.0407579  
H328     H      0.144630000000     0.175540000000     0.368450000000     0.0367653  
H329     H      0.758930000000     0.896800000000     0.464930000000     0.0395902  
H330     H      0.788720000000     0.948050000000     0.375190000000     0.04399    
H331     H      0.703900000000     0.959610000000     0.348070000000     0.045315   
H332     H      0.660240000000     0.876210000000     0.466370000000     0.0398225  
H333     H      0.568010000000     0.839160000000     0.410130000000     0.0398993  
H334     H      0.613230000000     0.950000000000     0.354290000000     0.0436127  
H335     H      0.761380000000     0.944660000000     0.477760000000     0.045543   
H336     H      0.793620000000     0.996200000000     0.389700000000     0.0453487  
H337     H      0.594660000000     0.897880000000     0.340370000000     0.0401849  
H338     H      0.575670000000     0.872530000000     0.444790000000     0.029366   
H339     H      0.430950000000     0.143510000000     0.516050000000     0.0402343  
H340     H      0.411370000000     0.094040000000     0.590410000000     0.0394516  
H341     H      0.301610000000     0.030830000000     0.589870000000     0.044771   
H342     H      0.333960000000     0.099890000000     0.465680000000     0.0407657  
H343     H      0.235600000000     0.079400000000     0.470730000000     0.0421354  
H344     H      0.209050000000     0.988510000000     0.552920000000     0.0415281  
H345     H      0.419510000000     0.105170000000     0.484860000000     0.0372296  
H346     H      0.391250000000     0.039720000000     0.581500000000     0.0390642  
H347     H      0.213510000000     0.038170000000     0.563200000000     0.043241   
H348     H      0.233630000000     0.030520000000     0.461180000000     0.0465915  
H349     H      0.040010000000     0.686540000000     0.394240000000     0.0448484  
H350     H      0.053660000000     0.686900000000     0.493010000000     0.0444605  
H351     H      0.058600000000     0.765420000000     0.505060000000     0.0422628  
H352     H      0.031420000000     0.765980000000     0.372300000000     0.0433895  
H353     H      0.091130000000     0.860770000000     0.386090000000     0.0411948  
H354     H      0.055780000000     0.841360000000     0.489160000000     0.0396113  
H355     H      0.978890000000     0.672690000000     0.397850000000     0.0418099  
H356     H      0.992490000000     0.674270000000     0.491680000000     0.0447001  
H357     H      0.114770000000     0.858900000000     0.476540000000     0.0386616  
H358     H      0.028710000000     0.842330000000     0.388140000000     0.0365507  
H359     H      0.960250000000     0.139670000000     0.443860000000     0.0427472  
H360     H      0.946200000000     0.117040000000     0.543740000000     0.0391791  
H361     H      0.934910000000     0.188950000000     0.559240000000     0.0438685  
H362     H      0.953510000000     0.212550000000     0.427540000000     0.0423416  
H363     H      0.010620000000     0.297590000000     0.453200000000     0.0416555  
H364     H      0.933440000000     0.272840000000     0.538150000000     0.0451552  
H365     H      0.896600000000     0.116640000000     0.440850000000     0.0428767  
H366     H      0.883790000000     0.096900000000     0.531690000000     0.0441706  
H367     H      0.994550000000     0.284670000000     0.545740000000     0.0404768  
H368     H      0.950900000000     0.287350000000     0.440900000000     0.0471399  
H369     H      0.902690000000     0.982460000000     0.786090000000     0.0435634  
H370     H      0.929090000000     0.896940000000     0.798160000000     0.0470309  
H371     H      0.976970000000     0.906080000000     0.728550000000     0.0439932  
H372     H      0.919160000000     0.011190000000     0.708740000000     0.0467157  
H373     H      0.895590000000     0.968530000000     0.636540000000     0.0465039  
H374     H      0.009080000000     0.951750000000     0.656100000000     0.0459904  
H375     H      0.965070000000     0.020760000000     0.784230000000     0.0454839  
H376     H      0.992040000000     0.933830000000     0.799170000000     0.0391082  
H377     H      0.952080000000     0.904460000000     0.650920000000     0.0427635  
H378     H      0.952020000000     0.017020000000     0.638640000000     0.0401608  
H379     H      0.095760000000     0.991870000000     0.304600000000     0.0448727  
H380     H      0.037470000000     0.054510000000     0.287710000000     0.039857   
H381     H      0.012700000000     0.050360000000     0.210480000000     0.0451644  
H382     H      0.071970000000     0.946400000000     0.233680000000     0.042872   
H383     H      0.087780000000     0.972600000000     0.156030000000     0.0398485  
H384     H      0.998050000000     0.020870000000     0.140660000000     0.0441438  
H385     H      0.039700000000     0.942900000000     0.303660000000     0.0388729  
H386     H      0.980970000000     0.006450000000     0.283540000000     0.0487513  
H387     H      0.060950000000     0.058000000000     0.141680000000     0.0467145  
H388     H      0.025390000000     0.934370000000     0.157990000000     0.0451981  
H389     H      0.620670000000     0.683150000000     0.010790000000     0.0457781  
H390     H      0.709280000000     0.644030000000     0.995230000000     0.0423974  
H391     H      0.779560000000     0.715900000000     0.966030000000     0.0416086  
H392     H      0.679950000000     0.774620000000     0.996870000000     0.0457655  
H393     H      0.733670000000     0.833810000000     0.932370000000     0.0422059  
H394     H      0.834120000000     0.799140000000     0.941800000000     0.0484022  
H395     H      0.656880000000     0.696140000000     0.052480000000     0.0413886  
H396     H      0.730840000000     0.665330000000     0.038510000000     0.0385384  
H397     H      0.789450000000     0.788170000000     0.905220000000     0.0434829  
H398     H      0.766900000000     0.850320000000     0.974750000000     0.0505798  
H399     H      0.162420000000     0.158840000000     0.002250000000     0.0511235  
H400     H      0.225930000000     0.111670000000     0.960140000000     0.0486133  
H401     H      0.316220000000     0.187720000000     0.944400000000     0.0447012  
H402     H      0.222120000000     0.244590000000     0.988870000000     0.0420004  
H403     H      0.272820000000     0.305640000000     0.923270000000     0.0393772  
H404     H      0.379810000000     0.280500000000     0.940950000000     0.047183   
H405     H      0.204700000000     0.163470000000     0.039570000000     0.0427994  
H406     H      0.258970000000     0.120100000000     0.003290000000     0.041324   
H407     H      0.345210000000     0.272990000000     0.898440000000     0.0408622  
H408     H      0.298960000000     0.318530000000     0.968280000000     0.0461408  
H409     H      0.715340000000     0.037230000000     0.063940000000     0.0468996  
H410     H      0.742990000000     0.080350000000     0.972600000000     0.0398814  
H411     H      0.839770000000     0.094770000000     0.970180000000     0.0408385  
H412     H      0.796930000000     0.020190000000     0.091710000000     0.0457287  
H413     H      0.906370000000     0.074870000000     0.096910000000     0.0403529  
H414     H      0.921690000000     0.092980000000     0.991380000000     0.028378   
H415     H      0.706190000000     0.986110000000     0.052920000000     0.0411755  
H416     H      0.736870000000     0.030080000000     0.962220000000     0.0460235  
H417     H      0.934280000000     0.130670000000     0.023630000000     0.0413625  
H418     H      0.883420000000     0.021620000000     0.083770000000     0.0454657  
H419     H      0.082550000000     0.866780000000     0.852700000000     0.0398548  
H420     H      0.062680000000     0.820540000000     0.929300000000     0.0418236  
H421     H      0.160690000000     0.864840000000     0.978170000000     0.0420909  
H422     H      0.192220000000     0.926220000000     0.851870000000     0.0435125  
H423     H      0.278760000000     0.916470000000     0.879850000000     0.0437457  
H424     H      0.261990000000     0.932440000000     0.980310000000     0.0440504  
H425     H      0.104490000000     0.921830000000     0.860220000000     0.0391212  
H426     H      0.076150000000     0.861560000000     0.958300000000     0.0403097  
H427     H      0.258040000000     0.881950000000     0.973340000000     0.0429591  
H428     H      0.285460000000     0.967930000000     0.887110000000     0.037932   
H429     H      0.954990000000     0.654550000000     0.922830000000     0.0432215  
H430     H      0.986260000000     0.652690000000     0.019700000000     0.0455125  
H431     H      0.944080000000     0.694550000000     0.046480000000     0.0434164  
H432     H      0.900720000000     0.697940000000     0.915660000000     0.043345   
H433     H      0.928370000000     0.780080000000     0.930940000000     0.0510836  
H434     H      0.899370000000     0.753960000000     0.035490000000     0.0373121  
H435     H      0.896590000000     0.611000000000     0.932990000000     0.0390043  
H436     H      0.926640000000     0.609250000000     0.025980000000     0.0455082  
H437     H      0.962390000000     0.778450000000     0.029890000000     0.0440031  
H438     H      0.868430000000     0.755120000000     0.945410000000     0.0375164  
H439     H      0.092220000000     0.339940000000     0.011440000000     0.0378475  
H440     H      0.063850000000     0.343740000000     0.916870000000     0.0462765  
H441     H      0.045720000000     0.259270000000     0.896010000000     0.0444164  
H442     H      0.088230000000     0.254220000000     0.026990000000     0.0433116  
H443     H      0.124800000000     0.201200000000     0.995930000000     0.038556   
H444     H      0.030450000000     0.175220000000     0.911560000000     0.0450612  
H445     H      0.032310000000     0.298000000000     0.019530000000     0.0451076  
H446     H      0.003410000000     0.302190000000     0.923630000000     0.0460626  
H447     H      0.093670000000     0.202860000000     0.905970000000     0.0405831  
H448     H      0.064770000000     0.173020000000     0.010540000000     0.0496302  
N1       N      0.489410000000     0.470350000000     0.812880000000    -0.168193   
N2       N      0.506510000000     0.483770000000     0.634930000000    -0.167896   
N3       N      0.519500000000     0.504210000000     0.133360000000    -0.168415   
N4       N      0.497070000000     0.493680000000     0.309990000000    -0.168872   
N5       N      0.441860000000     0.624840000000     0.470450000000    -0.167671   
N6       N      0.419250000000     0.796270000000     0.476640000000    -0.167325   
N7       N      0.578520000000     0.178840000000     0.464420000000    -0.167831   
N8       N      0.549590000000     0.345990000000     0.474240000000    -0.168475   
N9       N      0.536520000000     0.994840000000     0.633350000000    -0.166529   
N10      N      0.538040000000     0.996420000000     0.812990000000    -0.166641   
N11      N      0.470490000000     0.996500000000     0.125700000000    -0.166392   
N12      N      0.473360000000     0.984530000000     0.306900000000    -0.165499   
N13      N      0.521870000000     0.664460000000     0.952650000000    -0.164665   
N14      N      0.576650000000     0.869150000000     0.957010000000    -0.165974   
N15      N      0.417850000000     0.097620000000     0.994890000000    -0.1632     
N16      N      0.479230000000     0.304940000000     0.995060000000    -0.164174   
N17      N      0.837790000000     0.310200000000     0.437780000000    -0.166307   
N18      N      0.695130000000     0.118580000000     0.518030000000    -0.164314   
N19      N      0.303560000000     0.846340000000     0.436950000000    -0.165125   
N20      N      0.160430000000     0.652760000000     0.514510000000    -0.164925   
N21      N      0.662440000000     0.498690000000     0.410250000000    -0.166403   
N22      N      0.852970000000     0.515520000000     0.512240000000    -0.167123   
N23      N      0.330030000000     0.479700000000     0.524570000000    -0.16501    
N24      N      0.140040000000     0.459780000000     0.419890000000    -0.171544   
N25      N      0.003440000000     0.493640000000     0.808070000000    -0.168006   
N26      N      0.024250000000     0.508020000000     0.630430000000    -0.167214   
N27      N      0.008250000000     0.475650000000     0.134030000000    -0.168388   
N28      N      0.980780000000     0.463430000000     0.310560000000    -0.167795   
N29      N      0.665050000000     0.134570000000     0.893600000000    -0.163841   
N30      N      0.859100000000     0.325940000000     0.892050000000    -0.163502   
N31      N      0.144110000000     0.638330000000     0.048050000000    -0.164523   
N32      N      0.334700000000     0.832320000000     0.045210000000    -0.163779   
N33      N      0.838510000000     0.479450000000     0.026670000000    -0.16553    
N34      N      0.647220000000     0.463800000000     0.926200000000    -0.168483   
N35      N      0.163520000000     0.492950000000     0.914570000000    -0.167414   
N36      N      0.353370000000     0.514490000000     0.020080000000    -0.167507   
N37      N      0.828790000000     0.833110000000     0.541990000000    -0.163816   
N38      N      0.636470000000     0.641010000000     0.551110000000    -0.164246   
N39      N      0.167330000000     0.135990000000     0.400260000000    -0.164987   
N40      N      0.359620000000     0.328090000000     0.394990000000    -0.164414   
N41      N      0.570190000000     0.897130000000     0.390270000000    -0.163728   
N42      N      0.796950000000     0.952760000000     0.431370000000    -0.165617   
N43      N      0.201360000000     0.026600000000     0.508230000000    -0.165664   
N44      N      0.430380000000     0.087670000000     0.540560000000    -0.1633     
N45      N      0.071430000000     0.868780000000     0.435060000000    -0.1639     
N46      N      0.013040000000     0.661220000000     0.445610000000    -0.164501   
N47      N      0.976300000000     0.304690000000     0.494030000000    -0.165225   
N48      N      0.924710000000     0.101000000000     0.489970000000    -0.163756   
N49      N      0.954890000000     0.962170000000     0.628960000000    -0.164134   
N50      N      0.948990000000     0.959630000000     0.808690000000    -0.164656   
N51      N      0.041510000000     0.995040000000     0.132390000000    -0.164989   
N52      N      0.036030000000     0.997920000000     0.311410000000    -0.165409   
N53      N      0.800700000000     0.837580000000     0.935920000000    -0.164279   
N54      N      0.660470000000     0.650830000000     0.024430000000    -0.165199   
N55      N      0.342050000000     0.314580000000     0.931430000000    -0.165538   
N56      N      0.193770000000     0.119370000000     0.003090000000    -0.165182   
N57      N      0.928150000000     0.072250000000     0.046930000000    -0.16384    
N58      N      0.704150000000     0.027330000000     0.008650000000    -0.165094   
N59      N      0.292630000000     0.932100000000     0.933800000000    -0.16581    
N60      N      0.064630000000     0.875800000000     0.901930000000    -0.163328   
N61      N      0.921880000000     0.786860000000     0.984980000000    -0.168145   
N62      N      0.950170000000     0.620750000000     0.973510000000    -0.168299   
N63      N      0.072430000000     0.168280000000     0.956140000000    -0.167639   
N64      N      0.041260000000     0.333920000000     0.969520000000    -0.167615   
O1       O      0.148870000000     0.055380000000     0.981600000000    -0.378944   
O2       O      0.117860000000     0.080310000000     0.016800000000    -0.37111    
O3       O      0.967980000000     0.999790000000     0.855530000000    -0.372326   
O4       O      0.954820000000     0.932200000000     0.865050000000    -0.375584   
O5       O      0.039720000000     0.107060000000     0.928880000000    -0.374406   
O6       O      0.059230000000     0.107990000000     0.988450000000    -0.371304   
O7       O      0.081770000000     0.934640000000     0.927250000000    -0.375933   
O8       O      0.007000000000     0.891010000000     0.907890000000    -0.363205   
O9       O      0.139750000000     0.026020000000     0.910650000000    -0.345175   
O10      O      0.140670000000     0.970740000000     0.992110000000    -0.527801   
O11      O      0.063260000000     0.074600000000     0.869030000000    -0.531301   
O12      O      0.955110000000     0.065090000000     0.883000000000    -0.338998   
O13      O      0.063000000000     0.042500000000     0.955210000000    -0.497033   
O14      O      0.028250000000     0.983490000000     0.913420000000    -0.634129   
O15      O      0.956570000000     0.848430000000     0.011730000000    -0.377513   
O16      O      0.936090000000     0.847200000000     0.952280000000    -0.371223   
O17      O      0.912020000000     0.013770000000     0.021500000000    -0.374592   
O18      O      0.987410000000     0.062510000000     0.034210000000    -0.367235   
O19      O      0.845550000000     0.902420000000     0.956080000000    -0.380596   
O20      O      0.877040000000     0.875630000000     0.923240000000    -0.369936   
O21      O      0.023660000000     0.954550000000     0.085960000000    -0.369803   
O22      O      0.038380000000     0.022560000000     0.075640000000    -0.370362   
O23      O      0.935630000000     0.877600000000     0.072810000000    -0.527447   
O24      O      0.046510000000     0.895040000000     0.054950000000    -0.350523   
O25      O      0.849550000000     0.925070000000     0.025340000000    -0.335497   
O26      O      0.861900000000     0.992690000000     0.948680000000    -0.534478   
O27      O      0.932690000000     0.912920000000     0.985990000000    -0.632131   
O28      O      0.967420000000     0.971540000000     0.027240000000    -0.500353   
O29      O      0.021180000000     0.925240000000     0.973670000000    -0.49827    
O30      O      0.974080000000     0.030130000000     0.966630000000    -0.632537   
O31      O      0.059980000000     0.986180000000     0.015770000000    -0.63554    
O32      O      0.935650000000     0.969420000000     0.924870000000    -0.49931    
O33      O      0.015100000000     0.877710000000     0.454850000000    -0.384155   
O34      O      0.075950000000     0.933380000000     0.426940000000    -0.367812   
O35      O      0.869130000000     0.971960000000     0.414370000000    -0.36974    
O36      O      0.854590000000     0.960260000000     0.473390000000    -0.368833   
O37      O      0.990740000000     0.994640000000     0.353820000000    -0.378207   
O38      O      0.056620000000     0.989720000000     0.370300000000    -0.365706   
O39      O      0.896430000000     0.862110000000     0.514210000000    -0.369473   
O40      O      0.867270000000     0.904170000000     0.525610000000    -0.362451   
O41      O      0.906720000000     0.848320000000     0.434690000000    -0.358879   
O42      O      0.965300000000     0.840560000000     0.513340000000    -0.516285   
O43      O      0.895170000000     0.917950000000     0.373940000000    -0.528978   
O44      O      0.929740000000     0.026130000000     0.362220000000    -0.333206   
O45      O      0.987810000000     0.942060000000     0.422610000000    -0.498995   
O46      O      0.918810000000     0.933140000000     0.458340000000    -0.625605   
O47      O      0.999930000000     0.966190000000     0.585850000000    -0.368836   
O48      O      0.936950000000     0.976040000000     0.570630000000    -0.370059   
O49      O      0.099480000000     0.106780000000     0.427760000000    -0.383594   
O50      O      0.127980000000     0.064650000000     0.415440000000    -0.360102   
O51      O      0.959810000000     0.073350000000     0.462570000000    -0.349637   
O52      O      0.923970000000     0.039010000000     0.512680000000    -0.361647   
O53      O      0.128900000000     0.004440000000     0.526520000000    -0.371389   
O54      O      0.141100000000     0.012610000000     0.467270000000    -0.363064   
O55      O      0.093970000000     0.048860000000     0.570410000000    -0.527868   
O56      O      0.069850000000     0.944140000000     0.576810000000    -0.337442   
O57      O      0.072990000000     0.114490000000     0.514130000000    -0.366149   
O58      O      0.046540000000     0.140050000000     0.441090000000    -0.520039   
O59      O      0.007230000000     0.026980000000     0.518720000000    -0.623403   
O60      O      0.075930000000     0.035370000000     0.482420000000    -0.494903   
O61      O      0.971120000000     0.938030000000     0.523450000000    -0.493648   
O62      O      0.024130000000     0.031340000000     0.416930000000    -0.629269   
O63      O      0.041310000000     0.948490000000     0.488590000000    -0.630612   
O64      O      0.953990000000     0.019990000000     0.452380000000    -0.470936   
O65      O      0.032290000000     0.377560000000     0.002270000000    -0.370201   
O66      O      0.019170000000     0.379670000000     0.941900000000    -0.373446   
O67      O      0.873680000000     0.441420000000     0.019640000000    -0.390546   
O68      O      0.918250000000     0.511130000000     0.024920000000    -0.35341    
O69      O      0.876980000000     0.376780000000     0.928250000000    -0.380699   
O70      O      0.936020000000     0.373320000000     0.905790000000    -0.360663   
O71      O      0.015440000000     0.449400000000     0.085130000000    -0.381686   
O72      O      0.003130000000     0.506150000000     0.079410000000    -0.386695   
O73      O      0.968320000000     0.363470000000     0.058890000000    -0.343686   
O74      O      0.088340000000     0.435440000000     0.058460000000    -0.526755   
O75      O      0.859730000000     0.358600000000     0.003290000000    -0.527094   
O76      O      0.837570000000     0.429580000000     0.945840000000    -0.35073    
O77      O      0.963810000000     0.405170000000     0.976800000000    -0.500088   
O78      O      0.959830000000     0.449980000000     0.023290000000    -0.631387   
O79      O      0.126460000000     0.585820000000     0.013720000000    -0.382826   
O80      O      0.067310000000     0.590540000000     0.034580000000    -0.36419    
O81      O      0.994180000000     0.517720000000     0.857290000000    -0.377059   
O82      O      0.003620000000     0.459480000000     0.861980000000    -0.380856   
O83      O      0.963420000000     0.579860000000     0.940630000000    -0.368394   
O84      O      0.981600000000     0.581660000000     0.000370000000    -0.374281   
O85      O      0.117730000000     0.523520000000     0.913040000000    -0.362831   
O86      O      0.083890000000     0.454110000000     0.910410000000    -0.362215   
O87      O      0.156370000000     0.604120000000     0.944750000000    -0.523838   
O88      O      0.162890000000     0.524660000000     0.993660000000    -0.363996   
O89      O      0.037790000000     0.603070000000     0.887900000000    -0.352982   
O90      O      0.919510000000     0.528950000000     0.879130000000    -0.525384   
O91      O      0.041420000000     0.558360000000     0.964900000000    -0.634439   
O92      O      0.044310000000     0.513180000000     0.918770000000    -0.481999   
O93      O      0.056960000000     0.505000000000     0.021110000000    -0.496999   
O94      O      0.947460000000     0.458830000000     0.920310000000    -0.632736   
O95      O      0.061210000000     0.461520000000     0.974600000000    -0.628811   
O96      O      0.943360000000     0.501290000000     0.967260000000    -0.49967    
O97      O      0.987460000000     0.363400000000     0.519150000000    -0.365576   
O98      O      0.988290000000     0.363220000000     0.459190000000    -0.367809   
O99      O      0.886460000000     0.474030000000     0.522570000000    -0.390758   
O100     O      0.933000000000     0.543160000000     0.513830000000    -0.352534   
O101     O      0.864740000000     0.375820000000     0.453110000000    -0.390222   
O102     O      0.913300000000     0.361230000000     0.426990000000    -0.363573   
O103     O      0.020110000000     0.472460000000     0.584510000000    -0.377863   
O104     O      0.013360000000     0.532190000000     0.573780000000    -0.38159    
O105     O      0.958910000000     0.385200000000     0.578120000000    -0.338399   
O106     O      0.076050000000     0.433290000000     0.558070000000    -0.532122   
O107     O      0.834650000000     0.391660000000     0.507790000000    -0.517497   
O108     O      0.847820000000     0.459510000000     0.437160000000    -0.357295   
O109     O      0.949000000000     0.410800000000     0.485050000000    -0.497856   
O110     O      0.958980000000     0.467520000000     0.524530000000    -0.624083   
O111     O      0.132280000000     0.588710000000     0.494820000000    -0.380398   
O112     O      0.082770000000     0.603990000000     0.518860000000    -0.364564   
O113     O      0.983260000000     0.498740000000     0.356170000000    -0.378438   
O114     O      0.982280000000     0.435550000000     0.367510000000    -0.379544   
O115     O      0.999410000000     0.601100000000     0.422090000000    -0.367849   
O116     O      0.009430000000     0.606080000000     0.482130000000    -0.363803   
O117     O      0.100290000000     0.496530000000     0.412560000000    -0.363946   
O118     O      0.060020000000     0.426900000000     0.418810000000    -0.363102   
O119     O      0.158690000000     0.580440000000     0.433720000000    -0.521044   
O120     O      0.153100000000     0.509900000000     0.498230000000    -0.35598    
O121     O      0.038300000000     0.585940000000     0.365980000000    -0.336939   
O122     O      0.918630000000     0.529930000000     0.380070000000    -0.526516   
O123     O      0.046650000000     0.557130000000     0.456200000000    -0.632113   
O124     O      0.036770000000     0.499950000000     0.417480000000    -0.476674   
O125     O      0.055230000000     0.509340000000     0.518400000000    -0.489995   
O126     O      0.939260000000     0.457970000000     0.422420000000    -0.624302   
O127     O      0.047340000000     0.450890000000     0.479560000000    -0.630381   
O128     O      0.948310000000     0.516750000000     0.461890000000    -0.490277   
O129     O      0.364520000000     0.952060000000     0.915610000000    -0.37213    
O130     O      0.353860000000     0.950100000000     0.974390000000    -0.366164   
O131     O      0.548320000000     0.901720000000     0.985860000000    -0.356444   
O132     O      0.577240000000     0.930540000000     0.932600000000    -0.365983   
O133     O      0.404900000000     0.863170000000     0.020960000000    -0.375939   
O134     O      0.371260000000     0.903190000000     0.027320000000    -0.355197   
O135     O      0.493410000000     0.992280000000     0.856320000000    -0.370651   
O136     O      0.558360000000     0.985630000000     0.871320000000    -0.371207   
O137     O      0.404610000000     0.898210000000     0.881170000000    -0.359778   
O138     O      0.410130000000     0.991910000000     0.857330000000    -0.518782   
O139     O      0.437140000000     0.845280000000     0.944360000000    -0.53151    
O140     O      0.468830000000     0.839050000000     0.023600000000    -0.338581   
O141     O      0.423080000000     0.927160000000     0.963410000000    -0.490098   
O142     O      0.492160000000     0.935570000000     0.927750000000    -0.622783   
O143     O      0.595430000000     0.105030000000     0.918730000000    -0.373069   
O144     O      0.627370000000     0.063800000000     0.911350000000    -0.361395   
O145     O      0.517970000000     0.010060000000     0.081390000000    -0.374798   
O146     O      0.439220000000     0.976380000000     0.070000000000    -0.371317   
O147     O      0.632730000000     0.010430000000     0.025600000000    -0.36436    
O148     O      0.645000000000     0.014620000000     0.966770000000    -0.366762   
O149     O      0.471520000000     0.086890000000     0.972840000000    -0.384551   
O150     O      0.419050000000     0.035270000000     0.009970000000    -0.363236   
O151     O      0.577230000000     0.128560000000     0.987910000000    -0.532727   
O152     O      0.512790000000     0.112610000000     0.906270000000    -0.335563   
O153     O      0.613780000000     0.067160000000     0.059190000000    -0.347621   
O154     O      0.565370000000     0.958060000000     0.082190000000    -0.528357   
O155     O      0.576700000000     0.040940000000     0.976890000000    -0.63086    
O156     O      0.506970000000     0.031950000000     0.011510000000    -0.496638   
O157     O      0.520210000000     0.023020000000     0.912810000000    -0.491412   
O158     O      0.479430000000     0.944610000000     0.027850000000    -0.63061    
O159     O      0.449630000000     0.012380000000     0.947870000000    -0.628198   
O160     O      0.549860000000     0.956030000000     0.992510000000    -0.473769   
O161     O      0.547130000000     0.119420000000     0.434980000000    -0.377652   
O162     O      0.561780000000     0.116660000000     0.495130000000    -0.371974   
O163     O      0.347610000000     0.911680000000     0.456170000000    -0.379615   
O164     O      0.378700000000     0.886410000000     0.421420000000    -0.367309   
O165     O      0.414330000000     0.032040000000     0.510820000000    -0.374217   
O166     O      0.487250000000     0.070820000000     0.536110000000    -0.363063   
O167     O      0.500640000000     0.019850000000     0.356550000000    -0.368645   
O168     O      0.453780000000     0.948770000000     0.361890000000    -0.373748   
O169     O      0.455830000000     0.070050000000     0.384410000000    -0.357105   
O170     O      0.570490000000     0.100510000000     0.374640000000    -0.519075   
O171     O      0.362520000000     0.001370000000     0.438630000000    -0.52633    
O172     O      0.349740000000     0.945230000000     0.520970000000    -0.338992   
O173     O      0.478300000000     0.042180000000     0.467630000000    -0.500255   
O174     O      0.440850000000     0.984630000000     0.421800000000    -0.632794   
O175     O      0.585050000000     0.950900000000     0.421910000000    -0.377457   
O176     O      0.510770000000     0.908040000000     0.400910000000    -0.367366   
O177     O      0.518320000000     0.956920000000     0.584990000000    -0.369958   
O178     O      0.534260000000     0.025370000000     0.577970000000    -0.37617    
O179     O      0.448740000000     0.855570000000     0.506030000000    -0.372795   
O180     O      0.437000000000     0.858520000000     0.445540000000    -0.367758   
O181     O      0.649700000000     0.056730000000     0.493020000000    -0.37855    
O182     O      0.617260000000     0.082600000000     0.525900000000    -0.370374   
O183     O      0.628360000000     0.964780000000     0.497500000000    -0.532658   
O184     O      0.650820000000     0.038000000000     0.423310000000    -0.332185   
O185     O      0.527690000000     0.890790000000     0.556610000000    -0.339446   
O186     O      0.420530000000     0.886220000000     0.565370000000    -0.532371   
O187     O      0.518350000000     0.933110000000     0.472940000000    -0.629951   
O188     O      0.555610000000     0.990570000000     0.518530000000    -0.500459   
O189     O      0.533110000000     0.995520000000     0.415380000000    -0.497364   
O190     O      0.463220000000     0.979420000000     0.525410000000    -0.632781   
O191     O      0.567310000000     0.052080000000     0.459660000000    -0.636125   
O192     O      0.430230000000     0.923750000000     0.480670000000    -0.495462   
O193     O      0.490180000000     0.363420000000     0.020180000000    -0.367015   
O194     O      0.490700000000     0.363660000000     0.960090000000    -0.364111   
O195     O      0.384210000000     0.471260000000     0.021550000000    -0.39338    
O196     O      0.432800000000     0.540700000000     0.017700000000    -0.355201   
O197     O      0.369330000000     0.378820000000     0.949960000000    -0.383806   
O198     O      0.418880000000     0.365040000000     0.924380000000    -0.362414   
O199     O      0.516690000000     0.468980000000     0.087550000000    -0.37946    
O200     O      0.511170000000     0.529320000000     0.076790000000    -0.384475   
O201     O      0.452720000000     0.381670000000     0.076810000000    -0.340319   
O202     O      0.572620000000     0.429870000000     0.063900000000    -0.531209   
O203     O      0.332120000000     0.393830000000     0.999600000000    -0.51499    
O204     O      0.356060000000     0.464980000000     0.932830000000    -0.360272   
O205     O      0.451060000000     0.411530000000     0.985130000000    -0.497739   
O206     O      0.458440000000     0.466310000000     0.025480000000    -0.628059   
O207     O      0.634370000000     0.586960000000     0.004690000000    -0.386169   
O208     O      0.582530000000     0.602240000000     0.025020000000    -0.365652   
O209     O      0.491710000000     0.504200000000     0.859260000000    -0.380145   
O210     O      0.491390000000     0.441200000000     0.869310000000    -0.378343   
O211     O      0.510620000000     0.606320000000     0.926670000000    -0.368822   
O212     O      0.511070000000     0.605720000000     0.986900000000    -0.365568   
O213     O      0.607070000000     0.500190000000     0.918460000000    -0.361451   
O214     O      0.567120000000     0.430510000000     0.922760000000    -0.363512   
O215     O      0.665840000000     0.582570000000     0.945000000000    -0.521544   
O216     O      0.652080000000     0.504190000000     0.004620000000    -0.364403   
O217     O      0.549920000000     0.590240000000     0.871040000000    -0.336032   
O218     O      0.429490000000     0.538360000000     0.881970000000    -0.525623   
O219     O      0.551430000000     0.558510000000     0.961710000000    -0.635952   
O220     O      0.543650000000     0.503020000000     0.921960000000    -0.473214   
O221     O      0.555310000000     0.507920000000     0.023260000000    -0.495193   
O222     O      0.446440000000     0.462000000000     0.922930000000    -0.623386   
O223     O      0.550050000000     0.451170000000     0.983550000000    -0.629243   
O224     O      0.452030000000     0.518990000000     0.963150000000    -0.497524   
O225     O      0.535470000000     0.387380000000     0.505830000000    -0.378709   
O226     O      0.523410000000     0.388470000000     0.445430000000    -0.373847   
O227     O      0.368170000000     0.443260000000     0.521030000000    -0.386631   
O228     O      0.409970000000     0.513420000000     0.524690000000    -0.353136   
O229     O      0.375560000000     0.378380000000     0.431170000000    -0.38523    
O230     O      0.435960000000     0.376690000000     0.409160000000    -0.361287   
O231     O      0.514320000000     0.458450000000     0.586070000000    -0.375236   
O232     O      0.497240000000     0.512430000000     0.580280000000    -0.384786   
O233     O      0.468030000000     0.371360000000     0.561480000000    -0.355343   
O234     O      0.587350000000     0.445920000000     0.561170000000    -0.523376   
O235     O      0.358970000000     0.361190000000     0.507550000000    -0.524939   
O236     O      0.331420000000     0.426980000000     0.447810000000    -0.35116    
O237     O      0.462110000000     0.409750000000     0.479450000000    -0.503844   
O238     O      0.455960000000     0.454800000000     0.525090000000    -0.630379   
O239     O      0.618660000000     0.586390000000     0.519280000000    -0.3719     
O240     O      0.559870000000     0.595780000000     0.534330000000    -0.365328   
O241     O      0.487100000000     0.518730000000     0.358290000000    -0.377449   
O242     O      0.499320000000     0.461950000000     0.364510000000    -0.383752   
O243     O      0.456300000000     0.583300000000     0.439390000000    -0.36905    
O244     O      0.470480000000     0.584240000000     0.499610000000    -0.371137   
O245     O      0.622410000000     0.532400000000     0.418260000000    -0.375667   
O246     O      0.583070000000     0.462410000000     0.413070000000    -0.364255   
O247     O      0.633350000000     0.615200000000     0.441120000000    -0.533427   
O248     O      0.667110000000     0.548950000000     0.489400000000    -0.343578   
O249     O      0.525830000000     0.603940000000     0.385040000000    -0.3505     
O250     O      0.408270000000     0.525880000000     0.381170000000    -0.526804   
O251     O      0.532770000000     0.563360000000     0.464850000000    -0.63447    
O252     O      0.538560000000     0.517970000000     0.419330000000    -0.491138   
O253     O      0.551740000000     0.512420000000     0.521380000000    -0.490818   
O254     O      0.442880000000     0.460860000000     0.422360000000    -0.632112   
O255     O      0.559150000000     0.470090000000     0.476360000000    -0.633352   
O256     O      0.436190000000     0.503090000000     0.468100000000    -0.499564   
Zr1      Zr     0.086870000000     0.990740000000     0.958810000000     1.38048    
Zr2      Zr     0.003290000000     0.034760000000     0.910830000000     1.37443    
Zr3      Zr     0.992940000000     0.920640000000     0.029810000000     1.37356    
Zr4      Zr     0.908650000000     0.964620000000     0.981930000000     1.37719    
Zr5      Zr     0.033670000000     0.036690000000     0.011330000000     1.38028    
Zr6      Zr     0.961350000000     0.918490000000     0.929350000000     1.37718    
Zr7      Zr     0.962480000000     0.897880000000     0.476100000000     1.37834    
Zr8      Zr     0.945420000000     0.979130000000     0.405880000000     1.37622    
Zr9      Zr     0.049480000000     0.989660000000     0.535040000000     1.37178    
Zr10     Zr     0.032340000000     0.070670000000     0.464880000000     1.35965    
Zr11     Zr     0.066700000000     0.994160000000     0.435060000000     1.35936    
Zr12     Zr     0.928050000000     0.974770000000     0.505740000000     1.35655    
Zr13     Zr     0.018580000000     0.430010000000     0.026180000000     1.37661    
Zr14     Zr     0.906670000000     0.426840000000     0.973020000000     1.3863     
Zr15     Zr     0.098280000000     0.536040000000     0.968610000000     1.37406    
Zr16     Zr     0.986150000000     0.533770000000     0.915960000000     1.37894    
Zr17     Zr     0.005940000000     0.437920000000     0.924540000000     1.37622    
Zr18     Zr     0.998010000000     0.525290000000     0.016640000000     1.3749     
Zr19     Zr     0.007180000000     0.435500000000     0.531750000000     1.3766     
Zr20     Zr     0.901920000000     0.443660000000     0.476350000000     1.38144    
Zr21     Zr     0.093980000000     0.524400000000     0.465170000000     1.37569    
Zr22     Zr     0.988240000000     0.531810000000     0.409500000000     1.38059    
Zr23     Zr     0.988520000000     0.426040000000     0.431900000000     1.37107    
Zr24     Zr     0.006490000000     0.541760000000     0.509320000000     1.36681    
Zr25     Zr     0.443600000000     0.965780000000     0.907090000000     1.36681    
Zr26     Zr     0.473320000000     0.899510000000     0.985380000000     1.36432    
Zr27     Zr     0.526920000000     0.068760000000     0.954420000000     1.38418    
Zr28     Zr     0.555980000000     0.002600000000     0.033140000000     1.38309    
Zr29     Zr     0.429900000000     0.973850000000     0.005190000000     1.35799    
Zr30     Zr     0.569640000000     0.993730000000     0.935240000000     1.35599    
Zr31     Zr     0.511700000000     0.048960000000     0.413450000000     1.37659    
Zr32     Zr     0.409420000000     0.977440000000     0.477400000000     1.38034    
Zr33     Zr     0.587250000000     0.997770000000     0.463050000000     1.3804     
Zr34     Zr     0.485190000000     0.926180000000     0.527560000000     1.3714     
Zr35     Zr     0.533240000000     0.043750000000     0.514440000000     1.38178    
Zr36     Zr     0.462920000000     0.931120000000     0.425690000000     1.3715     
Zr37     Zr     0.506270000000     0.433910000000     0.034040000000     1.37716    
Zr38     Zr     0.405070000000     0.445540000000     0.974920000000     1.38255    
Zr39     Zr     0.597770000000     0.524940000000     0.971750000000     1.37386    
Zr40     Zr     0.496380000000     0.536240000000     0.912850000000     1.38129    
Zr41     Zr     0.494290000000     0.428600000000     0.933650000000     1.36813    
Zr42     Zr     0.506970000000     0.540650000000     0.012710000000     1.36956    
Zr43     Zr     0.517050000000     0.437750000000     0.528010000000     1.37987    
Zr44     Zr     0.402750000000     0.428850000000     0.475340000000     1.38655    
Zr45     Zr     0.592140000000     0.544340000000     0.468640000000     1.37981    
Zr46     Zr     0.477920000000     0.535580000000     0.416270000000     1.38115    
Zr47     Zr     0.503940000000     0.443050000000     0.427200000000     1.37648    
Zr48     Zr     0.490640000000     0.529970000000     0.517180000000     1.37202    


