data_structure

_audit_creation_method RASPA-1.0
_audit_creation_date 2023-5-19
_audit_author_name 'Poobodin Mano'

_cell_length_a    56.638
_cell_length_b    34.779
_cell_length_c    39.459
_cell_angle_alpha 90.0034
_cell_angle_beta  90.0036
_cell_angle_gamma 89.9702
_cell_volume      77726.8

_symmetry_cell_setting          triclinic
_symmetry_space_group_name_Hall 'P 1'
_symmetry_space_group_name_H-M  'P 1'
_symmetry_Int_Tables_number     1

_symmetry_equiv_pos_as_xyz 'x,y,z'

loop_
_atom_site_label
_atom_site_type_symbol
_atom_site_fract_x
_atom_site_fract_y
_atom_site_fract_z
_atom_site_charge
C1       C      0.394240000000     0.008970000000     0.414860000000     0.38638    
C2       C      0.016710000000     0.026750000000     0.037410000000     0.392572   
C3       C      0.394140000000     0.013250000000     0.026960000000     0.394562   
C4       C      0.017490000000     0.011280000000     0.414720000000     0.389207   
C5       C      0.016680000000     0.148550000000     0.409160000000     0.390744   
C6       C      0.393160000000     0.154870000000     0.022780000000     0.389189   
C7       C      0.016380000000     0.154690000000     0.025200000000     0.38726    
C8       C      0.394110000000     0.140440000000     0.402900000000     0.390528   
C9       C      0.266960000000     0.403330000000     0.161170000000     0.393968   
C10      C      0.143690000000     0.404790000000     0.273680000000     0.389344   
C11      C      0.266980000000     0.406810000000     0.273560000000     0.387862   
C12      C      0.144450000000     0.389730000000     0.150620000000     0.394057   
C13      C      0.144690000000     0.262290000000     0.162350000000     0.387268   
C14      C      0.267030000000     0.275370000000     0.284640000000     0.39262    
C15      C      0.144450000000     0.267190000000     0.278280000000     0.389769   
C16      C      0.267930000000     0.261760000000     0.164840000000     0.390786   
C17      C      0.048340000000     0.217630000000     0.086550000000     0.0121762  
C18      C      0.060870000000     0.250200000000     0.137930000000    -0.0437892  
C19      C      0.102310000000     0.246660000000     0.159920000000    -0.0250581  
C20      C      0.084070000000     0.237030000000     0.133460000000     0.0120385  
C21      C      0.132180000000     0.208600000000     0.125620000000    -0.0254917  
C22      C      0.112710000000     0.200000000000     0.100610000000     0.0125693  
C23      C      0.043300000000     0.240910000000     0.114630000000    -0.0435815  
C24      C      0.089520000000     0.213600000000     0.105470000000    -0.00646685 
C25      C      0.117720000000     0.176500000000     0.072660000000    -0.0437461  
C26      C      0.100140000000     0.167170000000     0.049380000000    -0.0434822  
C27      C      0.058710000000     0.170810000000     0.027340000000    -0.0248711  
C28      C      0.076950000000     0.180410000000     0.053800000000     0.0120483  
C29      C      0.028780000000     0.208490000000     0.061840000000    -0.0247993  
C30      C      0.071510000000     0.203890000000     0.081770000000    -0.00616096 
C31      C      0.083980000000     0.236170000000     0.303710000000     0.0121948  
C32      C      0.042690000000     0.235540000000     0.320080000000    -0.0435283  
C33      C      0.028240000000     0.202240000000     0.372280000000    -0.0248155  
C34      C      0.047910000000     0.212720000000     0.348370000000     0.0125844  
C35      C      0.058520000000     0.167040000000     0.408290000000    -0.0242799  
C36      C      0.077050000000     0.179020000000     0.383100000000     0.0123772  
C37      C      0.060460000000     0.246830000000     0.297860000000    -0.043144   
C38      C      0.071430000000     0.201760000000     0.354720000000    -0.00596264 
C39      C      0.100580000000     0.168550000000     0.389050000000    -0.0431285  
C40      C      0.118360000000     0.179800000000     0.366830000000    -0.0437861  
C41      C      0.132780000000     0.212940000000     0.314500000000    -0.0252339  
C42      C      0.113130000000     0.202560000000     0.338490000000     0.0127462  
C43      C      0.102580000000     0.248870000000     0.278900000000    -0.0240422  
C44      C      0.089620000000     0.213500000000     0.332140000000    -0.00609885 
C45      C      0.048290000000     0.466350000000     0.100420000000     0.0120166  
C46      C      0.060760000000     0.411570000000     0.134040000000    -0.0436136  
C47      C      0.102470000000     0.387670000000     0.134390000000    -0.0248894  
C48      C      0.084060000000     0.415950000000     0.122730000000     0.0123779  
C49      C      0.132320000000     0.423110000000     0.098300000000    -0.0247212  
C50      C      0.112880000000     0.450200000000     0.087860000000     0.0123869  
C51      C      0.043140000000     0.436680000000     0.123260000000    -0.0436619  
C52      C      0.089580000000     0.445490000000     0.099670000000    -0.00631706 
C53      C      0.117980000000     0.479680000000     0.064780000000    -0.0433921  
C54      C      0.100360000000     0.004770000000     0.053980000000    -0.043956   
C55      C      0.058670000000     0.028810000000     0.053780000000    -0.0248928  
C56      C      0.077080000000     0.000460000000     0.065370000000     0.0118437  
C57      C      0.028750000000     0.493050000000     0.089550000000    -0.0246946  
C58      C      0.071560000000     0.470970000000     0.088480000000    -0.00639843 
C59      C      0.299160000000     0.197080000000     0.104450000000     0.0122637  
C60      C      0.310250000000     0.162830000000     0.053210000000    -0.0431866  
C61      C      0.350440000000     0.168440000000     0.026990000000    -0.0254646  
C62      C      0.333130000000     0.178110000000     0.054770000000     0.0123854  
C63      C      0.380360000000     0.210920000000     0.056560000000    -0.0247435  
C64      C      0.361940000000     0.219270000000     0.083180000000     0.0115069  
C65      C      0.293560000000     0.171920000000     0.077880000000    -0.0431436  
C66      C      0.339090000000     0.203500000000     0.081230000000    -0.00620091 
C67      C      0.367470000000     0.244660000000     0.109610000000    -0.0435141  
C68      C      0.350790000000     0.253770000000     0.134270000000    -0.0434749  
C69      C      0.310630000000     0.247990000000     0.160590000000    -0.0252695  
C70      C      0.327930000000     0.238410000000     0.132760000000     0.0126671  
C71      C      0.280590000000     0.205950000000     0.130740000000    -0.0245636  
C72      C      0.321980000000     0.212990000000     0.106330000000    -0.00623516 
C73      C      0.298780000000     0.468450000000     0.335940000000     0.0117518  
C74      C      0.310800000000     0.499700000000     0.388210000000    -0.043684   
C75      C      0.351720000000     0.493810000000     0.411930000000    -0.0250069  
C76      C      0.333830000000     0.485430000000     0.384620000000     0.0115018  
C77      C      0.381550000000     0.454800000000     0.378600000000    -0.0255217  
C78      C      0.362460000000     0.447400000000     0.352640000000     0.0117042  
C79      C      0.293570000000     0.491590000000     0.364040000000    -0.0436264  
C80      C      0.339430000000     0.462090000000     0.356620000000    -0.00659132 
C81      C      0.367620000000     0.424000000000     0.324670000000    -0.0440314  
C82      C      0.350370000000     0.415860000000     0.300520000000    -0.0437623  
C83      C      0.309490000000     0.421920000000     0.276700000000    -0.0247954  
C84      C      0.327370000000     0.430210000000     0.304060000000     0.011396   
C85      C      0.279580000000     0.460570000000     0.310270000000    -0.0250891  
C86      C      0.321770000000     0.453600000000     0.332030000000    -0.00644356 
C87      C      0.333780000000     0.165910000000     0.372990000000     0.0125373  
C88      C      0.292680000000     0.185410000000     0.371250000000    -0.043487   
C89      C      0.278560000000     0.240990000000     0.336490000000    -0.025153   
C90      C      0.298020000000     0.214660000000     0.348080000000     0.0133588  
C91      C      0.308870000000     0.276730000000     0.301120000000    -0.0251229  
C92      C      0.327260000000     0.249280000000     0.314230000000     0.0130273  
C93      C      0.310290000000     0.161120000000     0.383320000000    -0.0431791  
C94      C      0.321510000000     0.219960000000     0.337410000000    -0.00619836 
C95      C      0.350760000000     0.254240000000     0.304080000000    -0.0433591  
C96      C      0.368390000000     0.229950000000     0.316130000000    -0.0437422  
C97      C      0.382480000000     0.174220000000     0.350770000000    -0.0255369  
C98      C      0.363030000000     0.200640000000     0.339260000000     0.0130492  
C99      C      0.352250000000     0.138940000000     0.386630000000    -0.0247088  
C100     C      0.339540000000     0.195310000000     0.349900000000    -0.0062125  
C101     C      0.048950000000     0.447430000000     0.353810000000     0.0117427  
C102     C      0.060470000000     0.413660000000     0.302550000000    -0.043605   
C103     C      0.101070000000     0.418580000000     0.277680000000    -0.025623   
C104     C      0.083470000000     0.428270000000     0.305050000000     0.0137619  
C105     C      0.131030000000     0.459690000000     0.308820000000    -0.026212   
C106     C      0.112260000000     0.468150000000     0.334880000000     0.0140561  
C107     C      0.043500000000     0.422830000000     0.326780000000    -0.0430641  
C108     C      0.089280000000     0.453070000000     0.331990000000    -0.00658209 
C109     C      0.117660000000     0.492970000000     0.361770000000    -0.0434851  
C110     C      0.100680000000     0.002200000000     0.385980000000    -0.0443486  
C111     C      0.060100000000     0.497180000000     0.410910000000    -0.0252597  
C112     C      0.077700000000     0.487520000000     0.383530000000     0.0130207  
C113     C      0.030070000000     0.456380000000     0.379590000000    -0.0237846  
C114     C      0.071900000000     0.462660000000     0.356630000000    -0.0054422  
C115     C      0.362790000000     0.449710000000     0.087500000000     0.0111793  
C116     C      0.350490000000     0.418960000000     0.139770000000    -0.043562   
C117     C      0.308890000000     0.422140000000     0.161110000000    -0.0243442  
C118     C      0.327210000000     0.431390000000     0.134730000000     0.0122078  
C119     C      0.278980000000     0.458350000000     0.125760000000    -0.0249453  
C120     C      0.298330000000     0.466560000000     0.100600000000     0.012214   
C121     C      0.368010000000     0.427710000000     0.116290000000    -0.0432304  
C122     C      0.321610000000     0.453640000000     0.106020000000    -0.00651517 
C123     C      0.293140000000     0.488830000000     0.071960000000    -0.0439644  
C124     C      0.310670000000     0.497600000000     0.048480000000    -0.0431984  
C125     C      0.352240000000     0.494220000000     0.027040000000    -0.0240262  
C126     C      0.333930000000     0.485070000000     0.053460000000     0.0117401  
C127     C      0.382230000000     0.458470000000     0.062650000000    -0.0236053  
C128     C      0.339530000000     0.462770000000     0.082150000000    -0.00583431 
H1       H      0.488940000000     0.002460000000     0.475050000000     0.193794   
H2       H      0.421620000000     0.087100000000     0.040010000000     0.191956   
H3       H      0.487570000000     0.162940000000     0.465440000000     0.195554   
H4       H      0.423070000000     0.075760000000     0.398540000000     0.197654   
H5       H      0.436720000000     0.048310000000     0.088510000000     0.131251   
H6       H      0.459420000000     0.122190000000     0.090470000000     0.197426   
H7       H      0.461610000000     0.218820000000     0.490750000000     0.12777    
H8       H      0.442440000000     0.218200000000     0.427990000000     0.195583   
H9       H      0.468060000000     0.107540000000     0.350420000000     0.138603   
H10      H      0.447510000000     0.036650000000     0.348620000000     0.189127   
H11      H      0.446290000000     0.446110000000     0.448460000000     0.13788    
H12      H      0.468410000000     0.446490000000     0.010080000000     0.188353   
H13      H      0.462510000000     0.218430000000     0.396850000000     0.199977   
H14      H      0.462980000000     0.495680000000     0.350420000000     0.201755   
H15      H      0.452280000000     0.446490000000     0.045620000000     0.200588   
H16      H      0.447550000000     0.166280000000     0.089580000000     0.201241   
H17      H      0.172220000000     0.413980000000     0.213050000000     0.194746   
H18      H      0.238120000000     0.340350000000     0.289420000000     0.195922   
H19      H      0.173530000000     0.253460000000     0.222310000000     0.191193   
H20      H      0.239410000000     0.329450000000     0.147910000000     0.194641   
H21      H      0.212630000000     0.375680000000     0.334700000000     0.128668   
H22      H      0.192210000000     0.305670000000     0.342610000000     0.197505   
H23      H      0.197080000000     0.201670000000     0.258710000000     0.126711   
H24      H      0.196370000000     0.191630000000     0.192200000000     0.185732   
H25      H      0.197020000000     0.293270000000     0.102430000000     0.138969   
H26      H      0.219920000000     0.362670000000     0.094430000000     0.189383   
H27      H      0.211330000000     0.466790000000     0.180290000000     0.13722    
H28      H      0.193300000000     0.476020000000     0.243610000000     0.189147   
H29      H      0.213880000000     0.188790000000     0.158130000000     0.201594   
H30      H      0.202000000000     0.400530000000     0.089510000000     0.201728   
H31      H      0.215180000000     0.480150000000     0.271880000000     0.201508   
H32      H      0.213210000000     0.272210000000     0.347300000000     0.200048   
H33      H      0.148660000000     0.213900000000     0.110970000000     0.0481743  
H34      H      0.025650000000     0.234150000000     0.045660000000     0.0396278  
H35      H      0.099660000000     0.227650000000     0.182240000000     0.0381423  
H36      H      0.061960000000     0.140690000000     0.018970000000     0.0489474  
H37      H      0.025590000000     0.251820000000     0.118620000000     0.0364188  
H38      H      0.056350000000     0.267860000000     0.159600000000     0.0355603  
H39      H      0.099140000000     0.276870000000     0.168080000000     0.0488095  
H40      H      0.012300000000     0.203430000000     0.076550000000     0.0477685  
H41      H      0.135400000000     0.165450000000     0.068750000000     0.0369231  
H42      H      0.135010000000     0.182910000000     0.141890000000     0.0375769  
H43      H      0.104650000000     0.149410000000     0.027760000000     0.0357567  
H44      H      0.061270000000     0.190010000000     0.005120000000     0.0384656  
H45      H      0.059820000000     0.185850000000     0.431010000000     0.0386206  
H46      H      0.098460000000     0.278900000000     0.271110000000     0.0487626  
H47      H      0.012410000000     0.195260000000     0.356720000000     0.0458636  
H48      H      0.136760000000     0.187670000000     0.298220000000     0.0376361  
H49      H      0.055860000000     0.264170000000     0.276030000000     0.0359037  
H50      H      0.024720000000     0.244610000000     0.315130000000     0.036069   
H51      H      0.024010000000     0.227620000000     0.388300000000     0.0356288  
H52      H      0.101250000000     0.230690000000     0.255810000000     0.0381495  
H53      H      0.105200000000     0.151380000000     0.410990000000     0.0360296  
H54      H      0.062550000000     0.137010000000     0.416190000000     0.0491303  
H55      H      0.136340000000     0.170800000000     0.371820000000     0.03683    
H56      H      0.148720000000     0.219470000000     0.329960000000     0.0478985  
H57      H      0.148790000000     0.440260000000     0.101230000000     0.0463961  
H58      H      0.025590000000     0.014280000000     0.110120000000     0.0427837  
H59      H      0.100570000000     0.360630000000     0.119600000000     0.0428218  
H60      H      0.062310000000     0.035670000000     0.026730000000     0.0488858  
H61      H      0.025330000000     0.432840000000     0.132730000000     0.0366935  
H62      H      0.056200000000     0.388640000000     0.151430000000     0.036078   
H63      H      0.098860000000     0.380990000000     0.161480000000     0.0489459  
H64      H      0.012290000000     0.475860000000     0.086780000000     0.0478985  
H65      H      0.135770000000     0.483400000000     0.055210000000     0.0363417  
H66      H      0.135180000000     0.401730000000     0.077770000000     0.0392281  
H67      H      0.104910000000     0.027620000000     0.036500000000     0.0363267  
H68      H      0.060530000000     0.055750000000     0.068710000000     0.0433669  
H69      H      0.397720000000     0.208510000000     0.069600000000     0.0455124  
H70      H      0.279350000000     0.181180000000     0.148450000000     0.0393565  
H71      H      0.346310000000     0.186180000000     0.004320000000     0.0423794  
H72      H      0.313280000000     0.278670000000     0.167620000000     0.048923   
H73      H      0.276100000000     0.159340000000     0.076150000000     0.0364267  
H74      H      0.305300000000     0.143640000000     0.032770000000     0.0365287  
H75      H      0.347850000000     0.137690000000     0.020150000000     0.0487085  
H76      H      0.263250000000     0.208240000000     0.117630000000     0.0463122  
H77      H      0.384900000000     0.257370000000     0.111240000000     0.0360685  
H78      H      0.381250000000     0.235610000000     0.038730000000     0.0421842  
H79      H      0.355710000000     0.273040000000     0.154650000000     0.036417   
H80      H      0.314710000000     0.230050000000     0.183160000000     0.0426128  
H81      H      0.398470000000     0.459080000000     0.364770000000     0.0465115  
H82      H      0.277390000000     0.486460000000     0.294060000000     0.0381876  
H83      H      0.348460000000     0.474310000000     0.433760000000     0.03984    
H84      H      0.312450000000     0.391920000000     0.267880000000     0.0483323  
H85      H      0.276000000000     0.003340000000     0.367380000000     0.036253   
H86      H      0.306150000000     0.017280000000     0.409870000000     0.0352757  
H87      H      0.348780000000     0.023860000000     0.420640000000     0.0481054  
H88      H      0.262670000000     0.456420000000     0.324160000000     0.0454348  
H89      H      0.385160000000     0.412120000000     0.321430000000     0.0362667  
H90      H      0.383410000000     0.428980000000     0.394980000000     0.0411361  
H91      H      0.355020000000     0.398160000000     0.278920000000     0.0354263  
H92      H      0.312760000000     0.441520000000     0.254940000000     0.0396814  
H93      H      0.312830000000     0.282330000000     0.273930000000     0.0494291  
H94      H      0.350730000000     0.110990000000     0.373130000000     0.0411681  
H95      H      0.274880000000     0.262320000000     0.356800000000     0.0360622  
H96      H      0.398690000000     0.191850000000     0.354240000000     0.0494884  
H97      H      0.305610000000     0.138520000000     0.400980000000     0.0362276  
H98      H      0.274720000000     0.181330000000     0.380010000000     0.0365571  
H99      H      0.262430000000     0.223220000000     0.332720000000     0.0479285  
H100     H      0.348190000000     0.133380000000     0.413800000000     0.0487437  
H101     H      0.355470000000     0.276970000000     0.286550000000     0.0361618  
H102     H      0.310350000000     0.304350000000     0.315140000000     0.0409399  
H103     H      0.386360000000     0.234090000000     0.307440000000     0.0371311  
H104     H      0.385960000000     0.152690000000     0.330550000000     0.041257   
H105     H      0.148100000000     0.456250000000     0.322460000000     0.0511424  
H106     H      0.028210000000     0.431300000000     0.396830000000     0.0399204  
H107     H      0.097390000000     0.436690000000     0.255080000000     0.0403772  
H108     H      0.062880000000     0.027750000000     0.418220000000     0.0493727  
H109     H      0.025950000000     0.410780000000     0.324340000000     0.0357654  
H110     H      0.055650000000     0.394940000000     0.281730000000     0.0365202  
H111     H      0.098340000000     0.387960000000     0.270500000000     0.0498262  
H112     H      0.013000000000     0.459570000000     0.365900000000     0.0447958  
H113     H      0.135190000000     0.005150000000     0.364120000000     0.0369099  
H114     H      0.132610000000     0.484750000000     0.291480000000     0.0379936  
H115     H      0.105480000000     0.021030000000     0.406740000000     0.0370201  
H116     H      0.063720000000     0.478950000000     0.433450000000     0.0405406  
H117     H      0.262430000000     0.453100000000     0.111270000000     0.0471005  
H118     H      0.385250000000     0.432680000000     0.046570000000     0.03843    
H119     H      0.310840000000     0.442430000000     0.182690000000     0.0399098  
H120     H      0.348570000000     0.023660000000     0.017340000000     0.0482     
H121     H      0.385810000000     0.417390000000     0.120670000000     0.035591   
H122     H      0.355100000000     0.402250000000     0.162000000000     0.0358295  
H123     H      0.312520000000     0.392600000000     0.170620000000     0.0488272  
H124     H      0.398770000000     0.463580000000     0.077190000000     0.0431963  
H125     H      0.275370000000     0.499310000000     0.067670000000     0.0364958  
H126     H      0.276290000000     0.484120000000     0.141970000000     0.0401904  
H127     H      0.306070000000     0.014410000000     0.026310000000     0.0352833  
H128     H      0.350350000000     0.473740000000     0.005580000000     0.0399414  
N1       N      0.034330000000     0.175270000000     0.040020000000    -0.162318   
N2       N      0.126710000000     0.241940000000     0.147350000000    -0.162761   
N3       N      0.126710000000     0.245990000000     0.292760000000    -0.163815   
N4       N      0.034400000000     0.169530000000     0.394370000000    -0.163839   
N5       N      0.034510000000     0.013740000000     0.058010000000    -0.163315   
N6       N      0.126630000000     0.402690000000     0.130010000000    -0.163263   
N7       N      0.285950000000     0.241080000000     0.150250000000    -0.162362   
N8       N      0.375110000000     0.175570000000     0.037280000000    -0.162716   
N9       N      0.284970000000     0.427160000000     0.288580000000    -0.162904   
N10      N      0.376240000000     0.488460000000     0.400040000000    -0.162542   
N11      N      0.376420000000     0.153970000000     0.382430000000    -0.16337    
N12      N      0.284700000000     0.261570000000     0.305020000000    -0.163451   
N13      N      0.035510000000     0.490940000000     0.399840000000    -0.162847   
N14      N      0.125660000000     0.425010000000     0.288680000000    -0.162159   
N15      N      0.376410000000     0.491480000000     0.040760000000    -0.164609   
N16      N      0.284710000000     0.425110000000     0.147440000000    -0.163959   
O1       O      0.415810000000     0.499780000000     0.407830000000    -0.372989   
O2       O      0.388660000000     0.036420000000     0.435220000000    -0.368226   
O3       O      0.495230000000     0.017910000000     0.045010000000    -0.36981    
O4       O      0.022300000000     0.047780000000     0.011840000000    -0.372421   
O5       O      0.415620000000     0.005870000000     0.035630000000    -0.381945   
O6       O      0.388480000000     0.039480000000     0.005470000000    -0.373888   
O7       O      0.496030000000     0.001980000000     0.407340000000    -0.374982   
O8       O      0.022830000000     0.038260000000     0.435730000000    -0.373006   
O9       O      0.456690000000     0.451380000000     0.428840000000    -0.351639   
O10      O      0.455440000000     0.017060000000     0.361730000000    -0.526075   
O11      O      0.459470000000     0.460280000000     0.027030000000    -0.525312   
O12      O      0.451770000000     0.034490000000     0.084680000000    -0.349162   
O13      O      0.432990000000     0.024270000000     0.472820000000    -0.498446   
O14      O      0.478470000000     0.024320000000     0.473360000000    -0.631828   
O15      O      0.495180000000     0.155700000000     0.400410000000    -0.382531   
O16      O      0.022320000000     0.123770000000     0.432000000000    -0.372952   
O17      O      0.414620000000     0.164520000000     0.029770000000    -0.373834   
O18      O      0.387820000000     0.126860000000     0.002820000000    -0.372908   
O19      O      0.494800000000     0.163270000000     0.032800000000    -0.370689   
O20      O      0.021970000000     0.128170000000     0.003920000000    -0.368916   
O21      O      0.415600000000     0.149320000000     0.395490000000    -0.374365   
O22      O      0.388460000000     0.118370000000     0.427790000000    -0.373096   
O23      O      0.453030000000     0.204470000000     0.413070000000    -0.528855   
O24      O      0.457470000000     0.129730000000     0.354450000000    -0.348902   
O25      O      0.455320000000     0.213080000000     0.013610000000    -0.343873   
O26      O      0.453670000000     0.144050000000     0.077800000000    -0.52832    
O27      O      0.477560000000     0.140510000000     0.466490000000    -0.635022   
O28      O      0.432280000000     0.140280000000     0.465930000000    -0.49808    
O29      O      0.478460000000     0.078430000000     0.418340000000    -0.498594   
O30      O      0.432150000000     0.085890000000     0.020790000000    -0.632494   
O31      O      0.433080000000     0.077800000000     0.418260000000    -0.634752   
O32      O      0.477810000000     0.086540000000     0.020740000000    -0.494789   
O33      O      0.245470000000     0.410860000000     0.152580000000    -0.376681   
O34      O      0.272610000000     0.376940000000     0.182520000000    -0.37321    
O35      O      0.165140000000     0.414030000000     0.281100000000    -0.372166   
O36      O      0.138350000000     0.377970000000     0.252510000000    -0.373069   
O37      O      0.245400000000     0.415890000000     0.280710000000    -0.376161   
O38      O      0.272540000000     0.379660000000     0.252890000000    -0.368418   
O39      O      0.165930000000     0.398510000000     0.142950000000    -0.373675   
O40      O      0.138860000000     0.368810000000     0.176270000000    -0.372813   
O41      O      0.201310000000     0.456870000000     0.161680000000    -0.35162    
O42      O      0.210030000000     0.382480000000     0.104120000000    -0.526698   
O43      O      0.204500000000     0.464250000000     0.258900000000    -0.526629   
O44      O      0.205450000000     0.400090000000     0.326910000000    -0.342454   
O45      O      0.228190000000     0.392120000000     0.215230000000    -0.497347   
O46      O      0.182670000000     0.392110000000     0.214720000000    -0.632397   
O47      O      0.166250000000     0.253690000000     0.154720000000    -0.37391    
O48      O      0.139110000000     0.288620000000     0.183820000000    -0.369488   
O49      O      0.245530000000     0.266390000000     0.291930000000    -0.377032   
O50      O      0.272690000000     0.297760000000     0.259990000000    -0.372931   
O51      O      0.165950000000     0.259870000000     0.286960000000    -0.38054    
O52      O      0.138830000000     0.292360000000     0.255770000000    -0.372917   
O53      O      0.246470000000     0.252260000000     0.157740000000    -0.373653   
O54      O      0.273300000000     0.289550000000     0.185010000000    -0.372355   
O55      O      0.205440000000     0.204080000000     0.174620000000    -0.522857   
O56      O      0.207560000000     0.272020000000     0.109500000000    -0.351527   
O57      O      0.208200000000     0.211240000000     0.276120000000    -0.340795   
O58      O      0.203280000000     0.287700000000     0.332780000000    -0.529584   
O59      O      0.183550000000     0.275900000000     0.221420000000    -0.634493   
O60      O      0.228790000000     0.276050000000     0.222000000000    -0.493362   
O61      O      0.183310000000     0.329950000000     0.167260000000    -0.498289   
O62      O      0.228070000000     0.338470000000     0.269720000000    -0.634544   
O63      O      0.228930000000     0.330540000000     0.167200000000    -0.632949   
O64      O      0.182680000000     0.337950000000     0.269670000000    -0.497533   
Zr1      Zr     0.455890000000     0.021010000000     0.422700000000     1.37311    
Zr2      Zr     0.455390000000     0.029140000000     0.023350000000     1.37457    
Zr3      Zr     0.455360000000     0.135360000000     0.415860000000     1.37641    
Zr4      Zr     0.454750000000     0.143190000000     0.016760000000     1.37465    
Zr5      Zr     0.410600000000     0.081890000000     0.469080000000     1.37743    
Zr6      Zr     0.000100000000     0.082890000000     0.469810000000     1.37693    
Zr7      Zr     0.205750000000     0.387340000000     0.164740000000     1.37608    
Zr8      Zr     0.205280000000     0.395350000000     0.265360000000     1.37369    
Zr9      Zr     0.206320000000     0.273250000000     0.171150000000     1.37372    
Zr10     Zr     0.205730000000     0.280980000000     0.272100000000     1.37646    
Zr11     Zr     0.250520000000     0.334420000000     0.218870000000     1.37788    
Zr12     Zr     0.161040000000     0.333550000000     0.218190000000     1.37794    
C129     C      0.394240000000     0.008960000000     0.914860000000     0.386341   
C130     C      0.016710000000     0.026750000000     0.537400000000     0.392517   
C131     C      0.394140000000     0.013250000000     0.526960000000     0.394304   
C132     C      0.017490000000     0.011280000000     0.914720000000     0.389296   
C133     C      0.016680000000     0.148550000000     0.909160000000     0.390771   
C134     C      0.393160000000     0.154870000000     0.522790000000     0.389142   
C135     C      0.016380000000     0.154690000000     0.525200000000     0.387261   
C136     C      0.394110000000     0.140440000000     0.902900000000     0.390523   
C137     C      0.266960000000     0.403330000000     0.661170000000     0.39393    
C138     C      0.143690000000     0.404790000000     0.773680000000     0.389336   
C139     C      0.266970000000     0.406810000000     0.773560000000     0.388101   
C140     C      0.144450000000     0.389730000000     0.650620000000     0.39416    
C141     C      0.144690000000     0.262290000000     0.662350000000     0.387267   
C142     C      0.267020000000     0.275370000000     0.784640000000     0.392717   
C143     C      0.144450000000     0.267190000000     0.778280000000     0.389848   
C144     C      0.267930000000     0.261760000000     0.664840000000     0.390957   
C145     C      0.048340000000     0.217630000000     0.586550000000     0.0121776  
C146     C      0.060870000000     0.250200000000     0.637930000000    -0.0437935  
C147     C      0.102310000000     0.246660000000     0.659920000000    -0.025093   
C148     C      0.084070000000     0.237030000000     0.633460000000     0.0120467  
C149     C      0.132180000000     0.208600000000     0.625620000000    -0.025492   
C150     C      0.112710000000     0.200000000000     0.600610000000     0.0125662  
C151     C      0.043300000000     0.240910000000     0.614630000000    -0.0435814  
C152     C      0.089520000000     0.213600000000     0.605470000000    -0.00646812 
C153     C      0.117720000000     0.176500000000     0.572660000000    -0.0437446  
C154     C      0.100140000000     0.167170000000     0.549380000000    -0.0434953  
C155     C      0.058710000000     0.170810000000     0.527330000000    -0.0249428  
C156     C      0.076950000000     0.180410000000     0.553800000000     0.0120686  
C157     C      0.028780000000     0.208490000000     0.561840000000    -0.024799   
C158     C      0.071510000000     0.203890000000     0.581770000000    -0.0061695  
C159     C      0.083980000000     0.236170000000     0.803710000000     0.0121595  
C160     C      0.042690000000     0.235540000000     0.820080000000    -0.0435552  
C161     C      0.028240000000     0.202240000000     0.872280000000    -0.0248229  
C162     C      0.047910000000     0.212720000000     0.848370000000     0.0126022  
C163     C      0.058520000000     0.167040000000     0.908290000000    -0.0243195  
C164     C      0.077050000000     0.179020000000     0.883090000000     0.0124164  
C165     C      0.060460000000     0.246830000000     0.797860000000    -0.0430911  
C166     C      0.071430000000     0.201760000000     0.854710000000    -0.00599201 
C167     C      0.100580000000     0.168550000000     0.889060000000    -0.0431988  
C168     C      0.118360000000     0.179800000000     0.866820000000    -0.0437738  
C169     C      0.132780000000     0.212940000000     0.814500000000    -0.0252261  
C170     C      0.113130000000     0.202560000000     0.838490000000     0.0127385  
C171     C      0.102580000000     0.248870000000     0.778900000000    -0.0239934  
C172     C      0.089620000000     0.213500000000     0.832140000000    -0.00607667 
C173     C      0.048290000000     0.466350000000     0.600410000000     0.0120081  
C174     C      0.060760000000     0.411570000000     0.634040000000    -0.0436114  
C175     C      0.102470000000     0.387670000000     0.634390000000    -0.0248872  
C176     C      0.084060000000     0.415950000000     0.622740000000     0.0123761  
C177     C      0.132320000000     0.423110000000     0.598300000000    -0.0247713  
C178     C      0.112880000000     0.450200000000     0.587860000000     0.0123981  
C179     C      0.043140000000     0.436680000000     0.623260000000    -0.0436707  
C180     C      0.089580000000     0.445490000000     0.599660000000    -0.00632016 
C181     C      0.117980000000     0.479680000000     0.564780000000    -0.0434028  
C182     C      0.100360000000     0.004770000000     0.553980000000    -0.0439689  
C183     C      0.058670000000     0.028810000000     0.553780000000    -0.0249336  
C184     C      0.077080000000     0.000460000000     0.565370000000     0.0118495  
C185     C      0.028750000000     0.493050000000     0.589550000000    -0.0246672  
C186     C      0.071560000000     0.470970000000     0.588480000000    -0.00640178 
C187     C      0.299160000000     0.197080000000     0.604450000000     0.0122536  
C188     C      0.310250000000     0.162830000000     0.553210000000    -0.0431941  
C189     C      0.350440000000     0.168440000000     0.526990000000    -0.0254885  
C190     C      0.333130000000     0.178110000000     0.554770000000     0.0123879  
C191     C      0.380360000000     0.210920000000     0.556560000000    -0.0247446  
C192     C      0.361940000000     0.219270000000     0.583180000000     0.0115072  
C193     C      0.293560000000     0.171920000000     0.577880000000    -0.0431417  
C194     C      0.339090000000     0.203500000000     0.581230000000    -0.00620748 
C195     C      0.367470000000     0.244660000000     0.609610000000    -0.0435182  
C196     C      0.350790000000     0.253770000000     0.634270000000    -0.0434694  
C197     C      0.310630000000     0.247990000000     0.660590000000    -0.025248   
C198     C      0.327930000000     0.238410000000     0.632760000000     0.0126559  
C199     C      0.280590000000     0.205950000000     0.630740000000    -0.0245529  
C200     C      0.321980000000     0.212990000000     0.606320000000    -0.00622642 
C201     C      0.298780000000     0.468450000000     0.835940000000     0.0117512  
C202     C      0.310800000000     0.499700000000     0.888210000000    -0.0436809  
C203     C      0.351720000000     0.493810000000     0.911930000000    -0.024977   
C204     C      0.333830000000     0.485430000000     0.884620000000     0.0114882  
C205     C      0.381550000000     0.454800000000     0.878600000000    -0.0255144  
C206     C      0.362460000000     0.447400000000     0.852640000000     0.0116974  
C207     C      0.293570000000     0.491590000000     0.864040000000    -0.043631   
C208     C      0.339430000000     0.462090000000     0.856620000000    -0.00658521 
C209     C      0.367620000000     0.424000000000     0.824670000000    -0.044028   
C210     C      0.350370000000     0.415860000000     0.800520000000    -0.0437663  
C211     C      0.309490000000     0.421920000000     0.776700000000    -0.024841   
C212     C      0.327370000000     0.430210000000     0.804050000000     0.011403   
C213     C      0.279580000000     0.460570000000     0.810270000000    -0.0250904  
C214     C      0.321770000000     0.453600000000     0.832030000000    -0.00644936 
C215     C      0.333780000000     0.165910000000     0.872990000000     0.0125458  
C216     C      0.292680000000     0.185410000000     0.871250000000    -0.0434896  
C217     C      0.278560000000     0.240990000000     0.836490000000    -0.0251714  
C218     C      0.298020000000     0.214660000000     0.848080000000     0.0133592  
C219     C      0.308870000000     0.276730000000     0.801120000000    -0.0251235  
C220     C      0.327260000000     0.249280000000     0.814230000000     0.0130249  
C221     C      0.310290000000     0.161120000000     0.883320000000    -0.0431884  
C222     C      0.321510000000     0.219960000000     0.837410000000    -0.0061998  
C223     C      0.350760000000     0.254240000000     0.804080000000    -0.0433586  
C224     C      0.368390000000     0.229950000000     0.816130000000    -0.0437442  
C225     C      0.382480000000     0.174220000000     0.850770000000    -0.0255387  
C226     C      0.363030000000     0.200640000000     0.839260000000     0.0130496  
C227     C      0.352250000000     0.138940000000     0.886630000000    -0.0247502  
C228     C      0.339540000000     0.195310000000     0.849900000000    -0.00621826 
C229     C      0.048950000000     0.447430000000     0.853810000000     0.0117657  
C230     C      0.060470000000     0.413660000000     0.802550000000    -0.0435937  
C231     C      0.101070000000     0.418580000000     0.777680000000    -0.0256196  
C232     C      0.083470000000     0.428270000000     0.805040000000     0.0137456  
C233     C      0.131030000000     0.459690000000     0.808810000000    -0.0261712  
C234     C      0.112260000000     0.468150000000     0.834880000000     0.0140267  
C235     C      0.043500000000     0.422830000000     0.826780000000    -0.0430772  
C236     C      0.089280000000     0.453070000000     0.831990000000    -0.00656094 
C237     C      0.117660000000     0.492970000000     0.861770000000    -0.0434749  
C238     C      0.100680000000     0.002200000000     0.885980000000    -0.0443546  
C239     C      0.060100000000     0.497180000000     0.910910000000    -0.0252592  
C240     C      0.077700000000     0.487520000000     0.883530000000     0.0130222  
C241     C      0.030070000000     0.456380000000     0.879580000000    -0.023823   
C242     C      0.071900000000     0.462660000000     0.856620000000    -0.00545561 
C243     C      0.362790000000     0.449710000000     0.587500000000     0.011166   
C244     C      0.350490000000     0.418960000000     0.639770000000    -0.0435655  
C245     C      0.308890000000     0.422140000000     0.661110000000    -0.0243461  
C246     C      0.327210000000     0.431390000000     0.634730000000     0.0122101  
C247     C      0.278980000000     0.458350000000     0.625760000000    -0.0249492  
C248     C      0.298330000000     0.466560000000     0.600600000000     0.0122156  
C249     C      0.368010000000     0.427710000000     0.616290000000    -0.0432254  
C250     C      0.321610000000     0.453640000000     0.606020000000    -0.00651934 
C251     C      0.293140000000     0.488830000000     0.571960000000    -0.0439622  
C252     C      0.310670000000     0.497600000000     0.548480000000    -0.043203   
C253     C      0.352240000000     0.494220000000     0.527040000000    -0.0240275  
C254     C      0.333930000000     0.485070000000     0.553460000000     0.0117333  
C255     C      0.382230000000     0.458470000000     0.562650000000    -0.0235816  
C256     C      0.339530000000     0.462770000000     0.582150000000    -0.0058302  
H129     H      0.488930000000     0.002460000000     0.975050000000     0.193968   
H130     H      0.421620000000     0.087100000000     0.540010000000     0.191959   
H131     H      0.487570000000     0.162940000000     0.965440000000     0.195563   
H132     H      0.423060000000     0.075760000000     0.898540000000     0.19747    
H133     H      0.436720000000     0.048310000000     0.588520000000     0.131232   
H134     H      0.459410000000     0.122190000000     0.590470000000     0.19739    
H135     H      0.461610000000     0.218820000000     0.990750000000     0.127702   
H136     H      0.442440000000     0.218200000000     0.927980000000     0.195668   
H137     H      0.468060000000     0.107540000000     0.850420000000     0.138608   
H138     H      0.447510000000     0.036650000000     0.848620000000     0.189138   
H139     H      0.446290000000     0.446110000000     0.948460000000     0.137863   
H140     H      0.468410000000     0.446490000000     0.510080000000     0.18833    
H141     H      0.462510000000     0.218430000000     0.896840000000     0.199863   
H142     H      0.462980000000     0.495680000000     0.850420000000     0.201755   
H143     H      0.452280000000     0.446490000000     0.545620000000     0.200585   
H144     H      0.447550000000     0.166280000000     0.589580000000     0.201135   
H145     H      0.172220000000     0.413980000000     0.713050000000     0.194773   
H146     H      0.238120000000     0.340350000000     0.789420000000     0.195924   
H147     H      0.173530000000     0.253460000000     0.722310000000     0.191204   
H148     H      0.239410000000     0.329450000000     0.647910000000     0.194835   
H149     H      0.212630000000     0.375680000000     0.834700000000     0.12866    
H150     H      0.192210000000     0.305670000000     0.842620000000     0.197459   
H151     H      0.197080000000     0.201670000000     0.758710000000     0.126716   
H152     H      0.196370000000     0.191630000000     0.692200000000     0.185733   
H153     H      0.197020000000     0.293270000000     0.602430000000     0.138968   
H154     H      0.219920000000     0.362670000000     0.594430000000     0.189163   
H155     H      0.211330000000     0.466790000000     0.680290000000     0.137224   
H156     H      0.193300000000     0.476020000000     0.743610000000     0.189144   
H157     H      0.213880000000     0.188790000000     0.658130000000     0.201594   
H158     H      0.201990000000     0.400530000000     0.589500000000     0.201266   
H159     H      0.215180000000     0.480150000000     0.771880000000     0.201517   
H160     H      0.213210000000     0.272210000000     0.847290000000     0.200143   
H161     H      0.148660000000     0.213900000000     0.610970000000     0.0481708  
H162     H      0.025650000000     0.234150000000     0.545660000000     0.0396163  
H163     H      0.099660000000     0.227650000000     0.682230000000     0.0381619  
H164     H      0.061960000000     0.140690000000     0.518970000000     0.0489638  
H165     H      0.025590000000     0.251820000000     0.618620000000     0.0364177  
H166     H      0.056350000000     0.267860000000     0.659600000000     0.0355617  
H167     H      0.099140000000     0.276870000000     0.668080000000     0.048818   
H168     H      0.012300000000     0.203430000000     0.576550000000     0.0477694  
H169     H      0.135400000000     0.165450000000     0.568750000000     0.0369162  
H170     H      0.135010000000     0.182910000000     0.641890000000     0.0375771  
H171     H      0.104650000000     0.149410000000     0.527760000000     0.035748   
H172     H      0.061270000000     0.190010000000     0.505120000000     0.0384702  
H173     H      0.059820000000     0.185850000000     0.931000000000     0.0386231  
H174     H      0.098460000000     0.278900000000     0.771110000000     0.0487501  
H175     H      0.012410000000     0.195260000000     0.856720000000     0.0458662  
H176     H      0.136760000000     0.187670000000     0.798220000000     0.0376349  
H177     H      0.055860000000     0.264170000000     0.776020000000     0.0358785  
H178     H      0.024720000000     0.244610000000     0.815130000000     0.0360766  
H179     H      0.024010000000     0.227620000000     0.888300000000     0.0356265  
H180     H      0.101250000000     0.230690000000     0.755800000000     0.0381292  
H181     H      0.105200000000     0.151380000000     0.910990000000     0.0360467  
H182     H      0.062550000000     0.137010000000     0.916190000000     0.0491281  
H183     H      0.136340000000     0.170800000000     0.871810000000     0.0368206  
H184     H      0.148720000000     0.219470000000     0.829960000000     0.047885   
H185     H      0.148780000000     0.440260000000     0.601230000000     0.0464161  
H186     H      0.025590000000     0.014280000000     0.610120000000     0.0427888  
H187     H      0.100570000000     0.360630000000     0.619600000000     0.042817   
H188     H      0.062310000000     0.035670000000     0.526730000000     0.048882   
H189     H      0.025330000000     0.432840000000     0.632720000000     0.036701   
H190     H      0.056200000000     0.388640000000     0.651430000000     0.0360774  
H191     H      0.098860000000     0.380990000000     0.661480000000     0.0489444  
H192     H      0.012290000000     0.475860000000     0.586770000000     0.0478956  
H193     H      0.135770000000     0.483400000000     0.555210000000     0.0363368  
H194     H      0.135180000000     0.401730000000     0.577770000000     0.0392308  
H195     H      0.104910000000     0.027620000000     0.536500000000     0.0363193  
H196     H      0.060530000000     0.055750000000     0.568710000000     0.0433819  
H197     H      0.397720000000     0.208510000000     0.569600000000     0.0455104  
H198     H      0.279350000000     0.181180000000     0.648450000000     0.0393548  
H199     H      0.346310000000     0.186180000000     0.504330000000     0.0423796  
H200     H      0.313280000000     0.278670000000     0.667630000000     0.0489006  
H201     H      0.276100000000     0.159340000000     0.576150000000     0.0364205  
H202     H      0.305300000000     0.143640000000     0.532770000000     0.036519   
H203     H      0.347850000000     0.137690000000     0.520150000000     0.0487037  
H204     H      0.263250000000     0.208240000000     0.617630000000     0.0462984  
H205     H      0.384900000000     0.257370000000     0.611240000000     0.0360684  
H206     H      0.381250000000     0.235610000000     0.538730000000     0.0421772  
H207     H      0.355710000000     0.273040000000     0.654650000000     0.0364155  
H208     H      0.314710000000     0.230050000000     0.683160000000     0.042604   
H209     H      0.398470000000     0.459080000000     0.864770000000     0.0465084  
H210     H      0.277390000000     0.486460000000     0.794050000000     0.0381888  
H211     H      0.348460000000     0.474310000000     0.933760000000     0.0398131  
H212     H      0.312450000000     0.391920000000     0.767880000000     0.0483502  
H213     H      0.276000000000     0.003340000000     0.867380000000     0.0362517  
H214     H      0.306150000000     0.017280000000     0.909870000000     0.0352476  
H215     H      0.348780000000     0.023860000000     0.920650000000     0.0480812  
H216     H      0.262670000000     0.456420000000     0.824150000000     0.0454484  
H217     H      0.385160000000     0.412120000000     0.821430000000     0.0362649  
H218     H      0.383410000000     0.428980000000     0.894980000000     0.0411253  
H219     H      0.355020000000     0.398160000000     0.778920000000     0.0354281  
H220     H      0.312750000000     0.441520000000     0.754940000000     0.0397081  
H221     H      0.312830000000     0.282330000000     0.773930000000     0.0494337  
H222     H      0.350730000000     0.110990000000     0.873130000000     0.0411782  
H223     H      0.274880000000     0.262320000000     0.856800000000     0.0360572  
H224     H      0.398690000000     0.191850000000     0.854240000000     0.0494846  
H225     H      0.305610000000     0.138520000000     0.900980000000     0.0362189  
H226     H      0.274720000000     0.181330000000     0.880010000000     0.036549   
H227     H      0.262430000000     0.223220000000     0.832720000000     0.0479295  
H228     H      0.348190000000     0.133380000000     0.913790000000     0.0487477  
H229     H      0.355470000000     0.276970000000     0.786550000000     0.0361612  
H230     H      0.310350000000     0.304350000000     0.815140000000     0.040938   
H231     H      0.386360000000     0.234090000000     0.807440000000     0.0371308  
H232     H      0.385960000000     0.152690000000     0.830550000000     0.0412606  
H233     H      0.148100000000     0.456250000000     0.822460000000     0.0511266  
H234     H      0.028210000000     0.431300000000     0.896830000000     0.0399215  
H235     H      0.097390000000     0.436690000000     0.755080000000     0.0403771  
H236     H      0.062880000000     0.027750000000     0.918220000000     0.0493589  
H237     H      0.025950000000     0.410780000000     0.824340000000     0.0357684  
H238     H      0.055650000000     0.394940000000     0.781730000000     0.0365179  
H239     H      0.098340000000     0.387960000000     0.770500000000     0.0498257  
H240     H      0.013000000000     0.459570000000     0.865900000000     0.0448089  
H241     H      0.135190000000     0.005150000000     0.864120000000     0.0369008  
H242     H      0.132610000000     0.484750000000     0.791480000000     0.0379858  
H243     H      0.105480000000     0.021030000000     0.906740000000     0.0370097  
H244     H      0.063720000000     0.478950000000     0.933450000000     0.0405269  
H245     H      0.262430000000     0.453100000000     0.611270000000     0.047105   
H246     H      0.385250000000     0.432680000000     0.546570000000     0.0384174  
H247     H      0.310840000000     0.442430000000     0.682690000000     0.0399114  
H248     H      0.348570000000     0.023660000000     0.517340000000     0.0482015  
H249     H      0.385810000000     0.417390000000     0.620670000000     0.0355883  
H250     H      0.355100000000     0.402250000000     0.662000000000     0.0358306  
H251     H      0.312520000000     0.392600000000     0.670620000000     0.0488273  
H252     H      0.398770000000     0.463580000000     0.577200000000     0.043183   
H253     H      0.275370000000     0.499310000000     0.567660000000     0.036489   
H254     H      0.276290000000     0.484120000000     0.641970000000     0.040193   
H255     H      0.306070000000     0.014410000000     0.526310000000     0.0352699  
H256     H      0.350350000000     0.473740000000     0.505580000000     0.0399226  
N17      N      0.034330000000     0.175270000000     0.540020000000    -0.16231    
N18      N      0.126710000000     0.241940000000     0.647350000000    -0.162758   
N19      N      0.126710000000     0.245990000000     0.792760000000    -0.163839   
N20      N      0.034400000000     0.169530000000     0.894370000000    -0.16384    
N21      N      0.034510000000     0.013740000000     0.558020000000    -0.163238   
N22      N      0.126630000000     0.402690000000     0.630010000000    -0.16328    
N23      N      0.285950000000     0.241080000000     0.650250000000    -0.162408   
N24      N      0.375110000000     0.175570000000     0.537280000000    -0.162736   
N25      N      0.284960000000     0.427160000000     0.788570000000    -0.162951   
N26      N      0.376240000000     0.488460000000     0.900040000000    -0.162569   
N27      N      0.376420000000     0.153970000000     0.882430000000    -0.163366   
N28      N      0.284700000000     0.261570000000     0.805020000000    -0.163395   
N29      N      0.035510000000     0.490940000000     0.899840000000    -0.162843   
N30      N      0.125660000000     0.425010000000     0.788680000000    -0.162163   
N31      N      0.376410000000     0.491480000000     0.540760000000    -0.164593   
N32      N      0.284710000000     0.425110000000     0.647440000000    -0.163952   
O65      O      0.415810000000     0.499780000000     0.907830000000    -0.373029   
O66      O      0.388660000000     0.036420000000     0.935220000000    -0.368171   
O67      O      0.495230000000     0.017910000000     0.545010000000    -0.369763   
O68      O      0.022300000000     0.047780000000     0.511840000000    -0.372455   
O69      O      0.415620000000     0.005870000000     0.535630000000    -0.381882   
O70      O      0.388470000000     0.039480000000     0.505460000000    -0.373756   
O71      O      0.496030000000     0.001990000000     0.907340000000    -0.375018   
O72      O      0.022830000000     0.038260000000     0.935730000000    -0.373089   
O73      O      0.456690000000     0.451380000000     0.928840000000    -0.351651   
O74      O      0.455440000000     0.017060000000     0.861730000000    -0.526075   
O75      O      0.459470000000     0.460280000000     0.527030000000    -0.525309   
O76      O      0.451770000000     0.034490000000     0.584680000000    -0.349068   
O77      O      0.432990000000     0.024270000000     0.972820000000    -0.498416   
O78      O      0.478470000000     0.024320000000     0.973350000000    -0.632026   
O79      O      0.495180000000     0.155700000000     0.900410000000    -0.382514   
O80      O      0.022320000000     0.123770000000     0.932000000000    -0.373033   
O81      O      0.414620000000     0.164520000000     0.529770000000    -0.373846   
O82      O      0.387820000000     0.126860000000     0.502820000000    -0.37288    
O83      O      0.494800000000     0.163270000000     0.532800000000    -0.370699   
O84      O      0.021970000000     0.128170000000     0.503920000000    -0.368894   
O85      O      0.415600000000     0.149320000000     0.895490000000    -0.374365   
O86      O      0.388460000000     0.118370000000     0.927790000000    -0.373107   
O87      O      0.453030000000     0.204470000000     0.913070000000    -0.528839   
O88      O      0.457470000000     0.129730000000     0.854450000000    -0.348893   
O89      O      0.455320000000     0.213080000000     0.513610000000    -0.343943   
O90      O      0.453670000000     0.144050000000     0.577790000000    -0.528241   
O91      O      0.477560000000     0.140510000000     0.966490000000    -0.635101   
O92      O      0.432280000000     0.140280000000     0.965930000000    -0.498117   
O93      O      0.478460000000     0.078430000000     0.918340000000    -0.498618   
O94      O      0.432150000000     0.085890000000     0.520790000000    -0.632539   
O95      O      0.433080000000     0.077800000000     0.918260000000    -0.634563   
O96      O      0.477810000000     0.086540000000     0.520740000000    -0.494756   
O97      O      0.245470000000     0.410860000000     0.652580000000    -0.376578   
O98      O      0.272610000000     0.376940000000     0.682520000000    -0.373195   
O99      O      0.165140000000     0.414030000000     0.781100000000    -0.372147   
O100     O      0.138350000000     0.377970000000     0.752510000000    -0.373066   
O101     O      0.245400000000     0.415890000000     0.780710000000    -0.376339   
O102     O      0.272540000000     0.379660000000     0.752890000000    -0.368454   
O103     O      0.165930000000     0.398510000000     0.642960000000    -0.373834   
O104     O      0.138860000000     0.368810000000     0.676270000000    -0.372838   
O105     O      0.201310000000     0.456870000000     0.661680000000    -0.351627   
O106     O      0.210030000000     0.382480000000     0.604130000000    -0.526137   
O107     O      0.204500000000     0.464250000000     0.758900000000    -0.52664    
O108     O      0.205450000000     0.400090000000     0.826910000000    -0.342379   
O109     O      0.228190000000     0.392120000000     0.715230000000    -0.497371   
O110     O      0.182670000000     0.392110000000     0.714720000000    -0.63254    
O111     O      0.166250000000     0.253690000000     0.654720000000    -0.373912   
O112     O      0.139110000000     0.288620000000     0.683820000000    -0.369486   
O113     O      0.245530000000     0.266390000000     0.791930000000    -0.377204   
O114     O      0.272690000000     0.297760000000     0.759990000000    -0.372924   
O115     O      0.165950000000     0.259870000000     0.786950000000    -0.380603   
O116     O      0.138830000000     0.292360000000     0.755770000000    -0.37293    
O117     O      0.246470000000     0.252260000000     0.657750000000    -0.373717   
O118     O      0.273290000000     0.289550000000     0.685010000000    -0.372476   
O119     O      0.205440000000     0.204080000000     0.674620000000    -0.522854   
O120     O      0.207560000000     0.272020000000     0.609500000000    -0.351535   
O121     O      0.208200000000     0.211240000000     0.776120000000    -0.340797   
O122     O      0.203280000000     0.287700000000     0.832780000000    -0.529641   
O123     O      0.183550000000     0.275900000000     0.721420000000    -0.634497   
O124     O      0.228790000000     0.276050000000     0.722000000000    -0.493356   
O125     O      0.183310000000     0.329950000000     0.667260000000    -0.49835    
O126     O      0.228070000000     0.338470000000     0.769720000000    -0.634552   
O127     O      0.228930000000     0.330540000000     0.667190000000    -0.633004   
O128     O      0.182680000000     0.337950000000     0.769670000000    -0.497524   
Zr13     Zr     0.455890000000     0.021010000000     0.922700000000     1.37321    
Zr14     Zr     0.455390000000     0.029140000000     0.523340000000     1.37456    
Zr15     Zr     0.455360000000     0.135360000000     0.915860000000     1.37638    
Zr16     Zr     0.454750000000     0.143190000000     0.516760000000     1.37466    
Zr17     Zr     0.410600000000     0.081890000000     0.969080000000     1.37733    
Zr18     Zr     0.000110000000     0.082890000000     0.969810000000     1.37691    
Zr19     Zr     0.205740000000     0.387340000000     0.664740000000     1.37616    
Zr20     Zr     0.205280000000     0.395350000000     0.765350000000     1.37373    
Zr21     Zr     0.206320000000     0.273250000000     0.671150000000     1.37375    
Zr22     Zr     0.205730000000     0.280980000000     0.772100000000     1.37651    
Zr23     Zr     0.250520000000     0.334420000000     0.718870000000     1.37787    
Zr24     Zr     0.161040000000     0.333550000000     0.718190000000     1.37794    
C257     C      0.394240000000     0.508970000000     0.414860000000     0.387305   
C258     C      0.016710000000     0.526750000000     0.037410000000     0.392544   
C259     C      0.394140000000     0.513260000000     0.026960000000     0.39498    
C260     C      0.017490000000     0.511280000000     0.414720000000     0.389671   
C261     C      0.016680000000     0.648550000000     0.409160000000     0.39087    
C262     C      0.393160000000     0.654860000000     0.022780000000     0.389249   
C263     C      0.016380000000     0.654690000000     0.025200000000     0.387285   
C264     C      0.394110000000     0.640430000000     0.402900000000     0.390678   
C265     C      0.266960000000     0.903330000000     0.161170000000     0.394089   
C266     C      0.143690000000     0.904790000000     0.273680000000     0.389298   
C267     C      0.266980000000     0.906820000000     0.273560000000     0.387829   
C268     C      0.144450000000     0.889730000000     0.150620000000     0.394066   
C269     C      0.144690000000     0.762290000000     0.162350000000     0.387267   
C270     C      0.267030000000     0.775370000000     0.284640000000     0.39262    
C271     C      0.144450000000     0.767190000000     0.278280000000     0.389638   
C272     C      0.267930000000     0.761760000000     0.164840000000     0.39079    
C273     C      0.048340000000     0.717630000000     0.086550000000     0.0121901  
C274     C      0.060870000000     0.750200000000     0.137930000000    -0.0437835  
C275     C      0.102310000000     0.746670000000     0.159920000000    -0.0250649  
C276     C      0.084070000000     0.737030000000     0.133460000000     0.012045   
C277     C      0.132180000000     0.708600000000     0.125620000000    -0.0255018  
C278     C      0.112710000000     0.700010000000     0.100610000000     0.0125817  
C279     C      0.043300000000     0.740910000000     0.114630000000    -0.0435805  
C280     C      0.089520000000     0.713610000000     0.105470000000    -0.00646044 
C281     C      0.117720000000     0.676500000000     0.072660000000    -0.0437315  
C282     C      0.100140000000     0.667170000000     0.049380000000    -0.0435106  
C283     C      0.058710000000     0.670800000000     0.027340000000    -0.0249345  
C284     C      0.076960000000     0.680410000000     0.053800000000     0.0120887  
C285     C      0.028780000000     0.708490000000     0.061840000000    -0.0248056  
C286     C      0.071510000000     0.703890000000     0.081770000000    -0.00616915 
C287     C      0.083980000000     0.736170000000     0.303710000000     0.0122062  
C288     C      0.042690000000     0.735540000000     0.320080000000    -0.0435241  
C289     C      0.028240000000     0.702240000000     0.372280000000    -0.0248112  
C290     C      0.047910000000     0.712730000000     0.348370000000     0.0125924  
C291     C      0.058520000000     0.667040000000     0.408290000000    -0.024303   
C292     C      0.077050000000     0.679020000000     0.383100000000     0.012399   
C293     C      0.060460000000     0.746830000000     0.297860000000    -0.0431399  
C294     C      0.071430000000     0.701770000000     0.354720000000    -0.00595782 
C295     C      0.100580000000     0.668550000000     0.389050000000    -0.0431201  
C296     C      0.118360000000     0.679800000000     0.366830000000    -0.0437746  
C297     C      0.132780000000     0.712940000000     0.314500000000    -0.025247   
C298     C      0.113130000000     0.702560000000     0.338490000000     0.0127631  
C299     C      0.102580000000     0.748870000000     0.278900000000    -0.0240545  
C300     C      0.089620000000     0.713500000000     0.332140000000    -0.00609474 
C301     C      0.048290000000     0.966350000000     0.100420000000     0.0116706  
C302     C      0.060760000000     0.911570000000     0.134040000000    -0.0436852  
C303     C      0.102470000000     0.887670000000     0.134390000000    -0.0249138  
C304     C      0.084060000000     0.915950000000     0.122730000000     0.0124777  
C305     C      0.132320000000     0.923110000000     0.098300000000    -0.0246864  
C306     C      0.112880000000     0.950200000000     0.087860000000     0.0123596  
C307     C      0.043140000000     0.936680000000     0.123260000000    -0.0434408  
C308     C      0.089580000000     0.945490000000     0.099670000000    -0.00643761 
C309     C      0.117980000000     0.979680000000     0.064780000000    -0.0428624  
C310     C      0.100360000000     0.504770000000     0.053980000000    -0.0435044  
C311     C      0.058670000000     0.528810000000     0.053780000000    -0.0250487  
C312     C      0.077080000000     0.500460000000     0.065370000000     0.0123782  
C313     C      0.028750000000     0.993050000000     0.089550000000    -0.0236901  
C314     C      0.071560000000     0.970970000000     0.088480000000    -0.00574133 
C315     C      0.299160000000     0.697080000000     0.104450000000     0.0122811  
C316     C      0.310250000000     0.662830000000     0.053210000000    -0.0431731  
C317     C      0.350440000000     0.668440000000     0.026990000000    -0.0254755  
C318     C      0.333130000000     0.678100000000     0.054770000000     0.0124022  
C319     C      0.380360000000     0.710920000000     0.056560000000    -0.0247109  
C320     C      0.361940000000     0.719270000000     0.083180000000     0.0115061  
C321     C      0.293560000000     0.671920000000     0.077880000000    -0.0431273  
C322     C      0.339090000000     0.703490000000     0.081230000000    -0.00619337 
C323     C      0.367470000000     0.744660000000     0.109610000000    -0.0435188  
C324     C      0.350790000000     0.753770000000     0.134270000000    -0.0434411  
C325     C      0.310630000000     0.747980000000     0.160590000000    -0.0252395  
C326     C      0.327930000000     0.738410000000     0.132760000000     0.0126538  
C327     C      0.280590000000     0.705950000000     0.130740000000    -0.0245721  
C328     C      0.321980000000     0.712980000000     0.106330000000    -0.00622547 
C329     C      0.298780000000     0.968440000000     0.335940000000     0.0116878  
C330     C      0.310800000000     0.999700000000     0.388210000000    -0.0431636  
C331     C      0.351720000000     0.993810000000     0.411930000000    -0.024401   
C332     C      0.333830000000     0.985430000000     0.384620000000     0.0112978  
C333     C      0.381550000000     0.954800000000     0.378600000000    -0.0255424  
C334     C      0.362460000000     0.947390000000     0.352640000000     0.0117096  
C335     C      0.293570000000     0.991590000000     0.364040000000    -0.0432083  
C336     C      0.339430000000     0.962090000000     0.356620000000    -0.00649581 
C337     C      0.367620000000     0.924000000000     0.324670000000    -0.0440102  
C338     C      0.350370000000     0.915860000000     0.300520000000    -0.0437526  
C339     C      0.309490000000     0.921920000000     0.276700000000    -0.0247889  
C340     C      0.327370000000     0.930210000000     0.304060000000     0.0114145  
C341     C      0.279580000000     0.960570000000     0.310270000000    -0.0250517  
C342     C      0.321770000000     0.953600000000     0.332030000000    -0.00642993 
C343     C      0.333780000000     0.665910000000     0.372990000000     0.0125631  
C344     C      0.292680000000     0.685410000000     0.371250000000    -0.0434644  
C345     C      0.278560000000     0.741000000000     0.336490000000    -0.0251231  
C346     C      0.298020000000     0.714660000000     0.348080000000     0.0133485  
C347     C      0.308870000000     0.776730000000     0.301120000000    -0.0250876  
C348     C      0.327260000000     0.749280000000     0.314230000000     0.0130191  
C349     C      0.310290000000     0.661120000000     0.383320000000    -0.0431737  
C350     C      0.321510000000     0.719960000000     0.337410000000    -0.00618149 
C351     C      0.350760000000     0.754240000000     0.304080000000    -0.0433518  
C352     C      0.368390000000     0.729950000000     0.316130000000    -0.0437353  
C353     C      0.382480000000     0.674210000000     0.350770000000    -0.0255045  
C354     C      0.363030000000     0.700650000000     0.339260000000     0.0130476  
C355     C      0.352250000000     0.638940000000     0.386630000000    -0.0247251  
C356     C      0.339540000000     0.695310000000     0.349900000000    -0.00620979 
C357     C      0.048950000000     0.947430000000     0.353810000000     0.0119766  
C358     C      0.060470000000     0.913660000000     0.302550000000    -0.0434626  
C359     C      0.101070000000     0.918580000000     0.277680000000    -0.0255435  
C360     C      0.083470000000     0.928270000000     0.305050000000     0.0135898  
C361     C      0.131030000000     0.959690000000     0.308820000000    -0.0259542  
C362     C      0.112260000000     0.968150000000     0.334880000000     0.0134232  
C363     C      0.043500000000     0.922830000000     0.326780000000    -0.0431775  
C364     C      0.089280000000     0.953070000000     0.331990000000    -0.00610987 
C365     C      0.117660000000     0.992970000000     0.361770000000    -0.041789   
C366     C      0.100680000000     0.502200000000     0.385980000000    -0.042656   
C367     C      0.060100000000     0.997180000000     0.410910000000    -0.0250752  
C368     C      0.077700000000     0.987520000000     0.383530000000     0.0139827  
C369     C      0.030070000000     0.956380000000     0.379590000000    -0.0238806  
C370     C      0.071900000000     0.962660000000     0.356630000000    -0.00589871 
C371     C      0.362790000000     0.949710000000     0.087500000000     0.0111232  
C372     C      0.350490000000     0.918960000000     0.139770000000    -0.0436143  
C373     C      0.308890000000     0.922140000000     0.161110000000    -0.0243726  
C374     C      0.327210000000     0.931390000000     0.134730000000     0.0122963  
C375     C      0.278980000000     0.958350000000     0.125760000000    -0.0250248  
C376     C      0.298330000000     0.966560000000     0.100600000000     0.0124247  
C377     C      0.368010000000     0.927710000000     0.116290000000    -0.0431559  
C378     C      0.321610000000     0.953640000000     0.106020000000    -0.00664814 
C379     C      0.293140000000     0.988830000000     0.071960000000    -0.0442872  
C380     C      0.310670000000     0.997600000000     0.048480000000    -0.0423391  
C381     C      0.352240000000     0.994220000000     0.027040000000    -0.0233641  
C382     C      0.333930000000     0.985060000000     0.053460000000     0.0113757  
C383     C      0.382230000000     0.958470000000     0.062650000000    -0.0235671  
C384     C      0.339530000000     0.962780000000     0.082150000000    -0.0056147  
H257     H      0.488940000000     0.502460000000     0.475050000000     0.193915   
H258     H      0.421620000000     0.587100000000     0.040010000000     0.191969   
H259     H      0.487570000000     0.662940000000     0.465440000000     0.195383   
H260     H      0.423070000000     0.575770000000     0.398540000000     0.19769    
H261     H      0.436720000000     0.548310000000     0.088510000000     0.13129    
H262     H      0.459420000000     0.622180000000     0.090470000000     0.197412   
H263     H      0.461610000000     0.718810000000     0.490750000000     0.127777   
H264     H      0.442440000000     0.718200000000     0.427990000000     0.195586   
H265     H      0.468060000000     0.607540000000     0.350420000000     0.138633   
H266     H      0.447510000000     0.536650000000     0.348620000000     0.189094   
H267     H      0.446290000000     0.946120000000     0.448460000000     0.137941   
H268     H      0.468410000000     0.946490000000     0.010080000000     0.18841    
H269     H      0.462510000000     0.718430000000     0.396850000000     0.199983   
H270     H      0.462980000000     0.995680000000     0.350420000000     0.202208   
H271     H      0.452280000000     0.946490000000     0.045620000000     0.200633   
H272     H      0.447550000000     0.666280000000     0.089580000000     0.201091   
H273     H      0.172220000000     0.913980000000     0.213050000000     0.194763   
H274     H      0.238120000000     0.840350000000     0.289420000000     0.195935   
H275     H      0.173530000000     0.753470000000     0.222310000000     0.191375   
H276     H      0.239410000000     0.829450000000     0.147910000000     0.194635   
H277     H      0.212630000000     0.875690000000     0.334700000000     0.128782   
H278     H      0.192210000000     0.805670000000     0.342610000000     0.197511   
H279     H      0.197080000000     0.701670000000     0.258710000000     0.126705   
H280     H      0.196370000000     0.691630000000     0.192200000000     0.185768   
H281     H      0.197020000000     0.793270000000     0.102430000000     0.138971   
H282     H      0.219920000000     0.862670000000     0.094430000000     0.189392   
H283     H      0.211330000000     0.966790000000     0.180290000000     0.137394   
H284     H      0.193300000000     0.976030000000     0.243610000000     0.189125   
H285     H      0.213880000000     0.688790000000     0.158130000000     0.201633   
H286     H      0.202000000000     0.900530000000     0.089510000000     0.201758   
H287     H      0.215180000000     0.980150000000     0.271880000000     0.201551   
H288     H      0.213210000000     0.772210000000     0.347300000000     0.200065   
H289     H      0.148660000000     0.713900000000     0.110970000000     0.0481871  
H290     H      0.025650000000     0.734150000000     0.045660000000     0.0396279  
H291     H      0.099660000000     0.727640000000     0.182240000000     0.0381498  
H292     H      0.061960000000     0.640700000000     0.018970000000     0.0489876  
H293     H      0.025590000000     0.751820000000     0.118620000000     0.0364275  
H294     H      0.056350000000     0.767860000000     0.159600000000     0.0355659  
H295     H      0.099140000000     0.776870000000     0.168080000000     0.0488187  
H296     H      0.012300000000     0.703430000000     0.076550000000     0.0477724  
H297     H      0.135400000000     0.665460000000     0.068750000000     0.0369584  
H298     H      0.135010000000     0.682910000000     0.141890000000     0.0376115  
H299     H      0.104650000000     0.649420000000     0.027760000000     0.0357971  
H300     H      0.061270000000     0.690010000000     0.005120000000     0.0384795  
H301     H      0.059820000000     0.685850000000     0.431010000000     0.03863    
H302     H      0.098460000000     0.778900000000     0.271110000000     0.048766   
H303     H      0.012410000000     0.695260000000     0.356720000000     0.0458725  
H304     H      0.136760000000     0.687670000000     0.298220000000     0.0376708  
H305     H      0.055860000000     0.764170000000     0.276030000000     0.0359102  
H306     H      0.024720000000     0.744610000000     0.315130000000     0.0360773  
H307     H      0.024010000000     0.727620000000     0.388300000000     0.0356298  
H308     H      0.101250000000     0.730690000000     0.255810000000     0.0381624  
H309     H      0.105200000000     0.651380000000     0.410990000000     0.0360552  
H310     H      0.062540000000     0.637010000000     0.416190000000     0.0491709  
H311     H      0.136340000000     0.670800000000     0.371820000000     0.0368574  
H312     H      0.148720000000     0.719470000000     0.329960000000     0.0479142  
H313     H      0.148790000000     0.940260000000     0.101230000000     0.0464192  
H314     H      0.025580000000     0.514280000000     0.110120000000     0.0432884  
H315     H      0.100570000000     0.860630000000     0.119600000000     0.0428303  
H316     H      0.062310000000     0.535680000000     0.026730000000     0.0489623  
H317     H      0.025330000000     0.932840000000     0.132730000000     0.0366949  
H318     H      0.056200000000     0.888630000000     0.151430000000     0.0361016  
H319     H      0.098860000000     0.880990000000     0.161480000000     0.048961   
H320     H      0.012290000000     0.975860000000     0.086780000000     0.0478299  
H321     H      0.135770000000     0.983400000000     0.055210000000     0.0363317  
H322     H      0.135190000000     0.901730000000     0.077770000000     0.0392295  
H323     H      0.104910000000     0.527620000000     0.036500000000     0.0363224  
H324     H      0.060530000000     0.555740000000     0.068710000000     0.0434528  
H325     H      0.397720000000     0.708510000000     0.069600000000     0.0455154  
H326     H      0.279350000000     0.681180000000     0.148450000000     0.0393989  
H327     H      0.346310000000     0.686180000000     0.004320000000     0.042387   
H328     H      0.313280000000     0.778670000000     0.167620000000     0.048907   
H329     H      0.276100000000     0.659340000000     0.076150000000     0.0364677  
H330     H      0.305300000000     0.643640000000     0.032770000000     0.0365624  
H331     H      0.347850000000     0.637690000000     0.020150000000     0.0487333  
H332     H      0.263250000000     0.708240000000     0.117630000000     0.0463273  
H333     H      0.384900000000     0.757370000000     0.111240000000     0.036078   
H334     H      0.381250000000     0.735620000000     0.038730000000     0.0421693  
H335     H      0.355710000000     0.773050000000     0.154650000000     0.0364064  
H336     H      0.314710000000     0.730050000000     0.183160000000     0.0426253  
H337     H      0.398470000000     0.959080000000     0.364770000000     0.0465858  
H338     H      0.277390000000     0.986460000000     0.294060000000     0.0382633  
H339     H      0.348460000000     0.974310000000     0.433760000000     0.0398117  
H340     H      0.312450000000     0.891920000000     0.267880000000     0.0483319  
H341     H      0.276000000000     0.503340000000     0.367380000000     0.0367068  
H342     H      0.306150000000     0.517290000000     0.409870000000     0.0356888  
H343     H      0.348780000000     0.523860000000     0.420640000000     0.0484923  
H344     H      0.262670000000     0.956420000000     0.324160000000     0.0454892  
H345     H      0.385160000000     0.912120000000     0.321430000000     0.0362877  
H346     H      0.383410000000     0.928980000000     0.394980000000     0.0411609  
H347     H      0.355020000000     0.898160000000     0.278920000000     0.0354403  
H348     H      0.312760000000     0.941520000000     0.254940000000     0.039714   
H349     H      0.312830000000     0.782330000000     0.273930000000     0.0494234  
H350     H      0.350730000000     0.610990000000     0.373130000000     0.041223   
H351     H      0.274880000000     0.762320000000     0.356800000000     0.0360598  
H352     H      0.398690000000     0.691860000000     0.354240000000     0.0494748  
H353     H      0.305610000000     0.638520000000     0.400980000000     0.0362618  
H354     H      0.274720000000     0.681330000000     0.380010000000     0.0365777  
H355     H      0.262430000000     0.723220000000     0.332720000000     0.0479334  
H356     H      0.348190000000     0.633380000000     0.413800000000     0.048763   
H357     H      0.355470000000     0.776970000000     0.286550000000     0.0361647  
H358     H      0.310350000000     0.804360000000     0.315140000000     0.0409217  
H359     H      0.386360000000     0.734100000000     0.307440000000     0.0371373  
H360     H      0.385960000000     0.652700000000     0.330550000000     0.0412893  
H361     H      0.148100000000     0.956250000000     0.322460000000     0.0511548  
H362     H      0.028210000000     0.931300000000     0.396830000000     0.0399877  
H363     H      0.097390000000     0.936690000000     0.255080000000     0.0404035  
H364     H      0.062880000000     0.527750000000     0.418220000000     0.049651   
H365     H      0.025950000000     0.910780000000     0.324340000000     0.0358184  
H366     H      0.055650000000     0.894940000000     0.281730000000     0.0365039  
H367     H      0.098340000000     0.887960000000     0.270500000000     0.0498159  
H368     H      0.013000000000     0.959570000000     0.365900000000     0.044923   
H369     H      0.135190000000     0.505160000000     0.364120000000     0.0376598  
H370     H      0.132610000000     0.984750000000     0.291480000000     0.038029   
H371     H      0.105480000000     0.521030000000     0.406740000000     0.0367201  
H372     H      0.063720000000     0.978950000000     0.433450000000     0.040644   
H373     H      0.262430000000     0.953100000000     0.111270000000     0.0471494  
H374     H      0.385250000000     0.932680000000     0.046570000000     0.0384536  
H375     H      0.310840000000     0.942430000000     0.182690000000     0.0399523  
H376     H      0.348570000000     0.523670000000     0.017340000000     0.0486062  
H377     H      0.385810000000     0.917390000000     0.120670000000     0.0356062  
H378     H      0.355100000000     0.902260000000     0.162000000000     0.035868   
H379     H      0.312520000000     0.892600000000     0.170620000000     0.0488336  
H380     H      0.398770000000     0.963580000000     0.077190000000     0.0433084  
H381     H      0.275370000000     0.999310000000     0.067670000000     0.036695   
H382     H      0.276290000000     0.984120000000     0.141970000000     0.0402794  
H383     H      0.306070000000     0.514410000000     0.026310000000     0.0358232  
H384     H      0.350350000000     0.973740000000     0.005580000000     0.0398908  
N33      N      0.034330000000     0.675270000000     0.040020000000    -0.162312   
N34      N      0.126710000000     0.741940000000     0.147350000000    -0.162758   
N35      N      0.126710000000     0.745990000000     0.292760000000    -0.163789   
N36      N      0.034400000000     0.669530000000     0.394370000000    -0.163851   
N37      N      0.034510000000     0.513740000000     0.058010000000    -0.162981   
N38      N      0.126630000000     0.902690000000     0.130010000000    -0.163253   
N39      N      0.285950000000     0.741080000000     0.150250000000    -0.162364   
N40      N      0.375110000000     0.675570000000     0.037280000000    -0.162691   
N41      N      0.284970000000     0.927160000000     0.288580000000    -0.162927   
N42      N      0.376240000000     0.988460000000     0.400040000000    -0.162271   
N43      N      0.376420000000     0.653970000000     0.382430000000    -0.163368   
N44      N      0.284700000000     0.761570000000     0.305020000000    -0.163455   
N45      N      0.035510000000     0.990940000000     0.399840000000    -0.162568   
N46      N      0.125660000000     0.925010000000     0.288680000000    -0.162177   
N47      N      0.376410000000     0.991480000000     0.040760000000    -0.164448   
N48      N      0.284710000000     0.925110000000     0.147440000000    -0.16396    
O129     O      0.415810000000     0.999780000000     0.407830000000    -0.37229    
O130     O      0.388660000000     0.536420000000     0.435220000000    -0.368325   
O131     O      0.495230000000     0.517910000000     0.045010000000    -0.369667   
O132     O      0.022300000000     0.547780000000     0.011840000000    -0.372308   
O133     O      0.415620000000     0.505870000000     0.035630000000    -0.381842   
O134     O      0.388480000000     0.539480000000     0.005470000000    -0.373926   
O135     O      0.496030000000     0.501990000000     0.407340000000    -0.374938   
O136     O      0.022830000000     0.538260000000     0.435730000000    -0.373051   
O137     O      0.456690000000     0.951370000000     0.428840000000    -0.351383   
O138     O      0.455440000000     0.517060000000     0.361730000000    -0.525546   
O139     O      0.459470000000     0.960280000000     0.027030000000    -0.525074   
O140     O      0.451770000000     0.534490000000     0.084680000000    -0.349058   
O141     O      0.432990000000     0.524270000000     0.472820000000    -0.498331   
O142     O      0.478470000000     0.524320000000     0.473360000000    -0.631877   
O143     O      0.495180000000     0.655700000000     0.400410000000    -0.382567   
O144     O      0.022320000000     0.623780000000     0.432000000000    -0.373005   
O145     O      0.414620000000     0.664520000000     0.029770000000    -0.37383    
O146     O      0.387820000000     0.626860000000     0.002820000000    -0.373017   
O147     O      0.494800000000     0.663260000000     0.032800000000    -0.370575   
O148     O      0.021970000000     0.628170000000     0.003920000000    -0.368843   
O149     O      0.415600000000     0.649320000000     0.395490000000    -0.374378   
O150     O      0.388460000000     0.618380000000     0.427790000000    -0.373232   
O151     O      0.453030000000     0.704470000000     0.413070000000    -0.528859   
O152     O      0.457470000000     0.629730000000     0.354450000000    -0.348884   
O153     O      0.455320000000     0.713080000000     0.013610000000    -0.34388    
O154     O      0.453670000000     0.644040000000     0.077800000000    -0.528138   
O155     O      0.477560000000     0.640500000000     0.466490000000    -0.634923   
O156     O      0.432280000000     0.640280000000     0.465930000000    -0.498144   
O157     O      0.478460000000     0.578420000000     0.418340000000    -0.498627   
O158     O      0.432150000000     0.585890000000     0.020790000000    -0.632538   
O159     O      0.433080000000     0.577810000000     0.418260000000    -0.634807   
O160     O      0.477810000000     0.586540000000     0.020740000000    -0.494802   
O161     O      0.245470000000     0.910860000000     0.152580000000    -0.376694   
O162     O      0.272610000000     0.876950000000     0.182520000000    -0.37327    
O163     O      0.165140000000     0.914040000000     0.281100000000    -0.3721     
O164     O      0.138350000000     0.877970000000     0.252510000000    -0.373053   
O165     O      0.245400000000     0.915890000000     0.280710000000    -0.376154   
O166     O      0.272540000000     0.879660000000     0.252890000000    -0.368345   
O167     O      0.165930000000     0.898510000000     0.142950000000    -0.373672   
O168     O      0.138860000000     0.868810000000     0.176270000000    -0.372812   
O169     O      0.201320000000     0.956870000000     0.161680000000    -0.351698   
O170     O      0.210030000000     0.882480000000     0.104120000000    -0.526701   
O171     O      0.204500000000     0.964250000000     0.258900000000    -0.526529   
O172     O      0.205450000000     0.900090000000     0.326910000000    -0.342524   
O173     O      0.228190000000     0.892120000000     0.215230000000    -0.497346   
O174     O      0.182670000000     0.892110000000     0.214720000000    -0.632408   
O175     O      0.166250000000     0.753690000000     0.154720000000    -0.373911   
O176     O      0.139110000000     0.788620000000     0.183820000000    -0.369499   
O177     O      0.245530000000     0.766390000000     0.291930000000    -0.377012   
O178     O      0.272690000000     0.797760000000     0.259990000000    -0.372931   
O179     O      0.165950000000     0.759870000000     0.286960000000    -0.380486   
O180     O      0.138830000000     0.792370000000     0.255770000000    -0.372867   
O181     O      0.246470000000     0.752260000000     0.157740000000    -0.373651   
O182     O      0.273300000000     0.789550000000     0.185010000000    -0.372363   
O183     O      0.205440000000     0.704080000000     0.174620000000    -0.522868   
O184     O      0.207560000000     0.772020000000     0.109500000000    -0.351522   
O185     O      0.208200000000     0.711250000000     0.276120000000    -0.340736   
O186     O      0.203280000000     0.787700000000     0.332780000000    -0.529602   
O187     O      0.183550000000     0.775900000000     0.221420000000    -0.634662   
O188     O      0.228790000000     0.776060000000     0.222000000000    -0.493409   
O189     O      0.183310000000     0.829950000000     0.167260000000    -0.498296   
O190     O      0.228070000000     0.838470000000     0.269720000000    -0.634609   
O191     O      0.228930000000     0.830540000000     0.167200000000    -0.632951   
O192     O      0.182680000000     0.837950000000     0.269670000000    -0.4976     
Zr25     Zr     0.455890000000     0.521010000000     0.422700000000     1.37373    
Zr26     Zr     0.455390000000     0.529140000000     0.023350000000     1.37488    
Zr27     Zr     0.455360000000     0.635360000000     0.415860000000     1.37642    
Zr28     Zr     0.454750000000     0.643190000000     0.016760000000     1.37463    
Zr29     Zr     0.410600000000     0.581900000000     0.469080000000     1.37756    
Zr30     Zr     0.000100000000     0.582890000000     0.469810000000     1.37701    
Zr31     Zr     0.205750000000     0.887340000000     0.164740000000     1.37612    
Zr32     Zr     0.205280000000     0.895350000000     0.265360000000     1.3737     
Zr33     Zr     0.206320000000     0.773250000000     0.171150000000     1.37376    
Zr34     Zr     0.205730000000     0.780990000000     0.272100000000     1.37656    
Zr35     Zr     0.250520000000     0.834420000000     0.218870000000     1.37792    
Zr36     Zr     0.161040000000     0.833550000000     0.218190000000     1.37796    
C385     C      0.394240000000     0.508970000000     0.914860000000     0.387428   
C386     C      0.016710000000     0.526750000000     0.537400000000     0.392523   
C387     C      0.394140000000     0.513260000000     0.526960000000     0.394844   
C388     C      0.017490000000     0.511280000000     0.914720000000     0.389671   
C389     C      0.016680000000     0.648550000000     0.909160000000     0.390862   
C390     C      0.393160000000     0.654870000000     0.522790000000     0.389164   
C391     C      0.016380000000     0.654690000000     0.525200000000     0.38729    
C392     C      0.394110000000     0.640430000000     0.902900000000     0.390671   
C393     C      0.266960000000     0.903330000000     0.661170000000     0.394066   
C394     C      0.143690000000     0.904790000000     0.773680000000     0.389348   
C395     C      0.266970000000     0.906820000000     0.773560000000     0.388069   
C396     C      0.144450000000     0.889730000000     0.650620000000     0.394175   
C397     C      0.144690000000     0.762290000000     0.662350000000     0.38726    
C398     C      0.267020000000     0.775370000000     0.784640000000     0.392717   
C399     C      0.144450000000     0.767190000000     0.778280000000     0.389712   
C400     C      0.267930000000     0.761760000000     0.664840000000     0.390958   
C401     C      0.048340000000     0.717630000000     0.586550000000     0.0121925  
C402     C      0.060870000000     0.750200000000     0.637930000000    -0.0437877  
C403     C      0.102310000000     0.746670000000     0.659920000000    -0.0251002  
C404     C      0.084070000000     0.737030000000     0.633460000000     0.0120537  
C405     C      0.132180000000     0.708600000000     0.625620000000    -0.0255026  
C406     C      0.112710000000     0.700010000000     0.600610000000     0.0125793  
C407     C      0.043300000000     0.740910000000     0.614630000000    -0.0435803  
C408     C      0.089520000000     0.713610000000     0.605470000000    -0.00646189 
C409     C      0.117720000000     0.676500000000     0.572660000000    -0.0437303  
C410     C      0.100140000000     0.667170000000     0.549380000000    -0.0435229  
C411     C      0.058710000000     0.670800000000     0.527330000000    -0.0250032  
C412     C      0.076960000000     0.680410000000     0.553800000000     0.0121078  
C413     C      0.028780000000     0.708490000000     0.561840000000    -0.0248072  
C414     C      0.071510000000     0.703890000000     0.581770000000    -0.00617715 
C415     C      0.083980000000     0.736160000000     0.803710000000     0.0121722  
C416     C      0.042690000000     0.735540000000     0.820080000000    -0.043538   
C417     C      0.028240000000     0.702240000000     0.872280000000    -0.0248206  
C418     C      0.047910000000     0.712720000000     0.848370000000     0.0126093  
C419     C      0.058520000000     0.667040000000     0.908290000000    -0.024348   
C420     C      0.077050000000     0.679020000000     0.883090000000     0.0124434  
C421     C      0.060460000000     0.746830000000     0.797860000000    -0.0430923  
C422     C      0.071430000000     0.701770000000     0.854710000000    -0.00598923 
C423     C      0.100580000000     0.668550000000     0.889060000000    -0.0432     
C424     C      0.118360000000     0.679810000000     0.866820000000    -0.0437538  
C425     C      0.132780000000     0.712940000000     0.814500000000    -0.0252409  
C426     C      0.113130000000     0.702560000000     0.838490000000     0.0127594  
C427     C      0.102580000000     0.748870000000     0.778900000000    -0.0240055  
C428     C      0.089620000000     0.713500000000     0.832140000000    -0.00607528 
C429     C      0.048290000000     0.966350000000     0.600410000000     0.0116578  
C430     C      0.060760000000     0.911570000000     0.634040000000    -0.0437161  
C431     C      0.102470000000     0.887670000000     0.634390000000    -0.0249158  
C432     C      0.084060000000     0.915950000000     0.622740000000     0.0124885  
C433     C      0.132320000000     0.923110000000     0.598300000000    -0.0246862  
C434     C      0.112880000000     0.950200000000     0.587860000000     0.0123698  
C435     C      0.043140000000     0.936680000000     0.623260000000    -0.0434349  
C436     C      0.089580000000     0.945490000000     0.599660000000    -0.00644459 
C437     C      0.117980000000     0.979670000000     0.564780000000    -0.0428711  
C438     C      0.100360000000     0.504770000000     0.553980000000    -0.0435083  
C439     C      0.058670000000     0.528810000000     0.553780000000    -0.025085   
C440     C      0.077080000000     0.500460000000     0.565370000000     0.0123791  
C441     C      0.028750000000     0.993050000000     0.589550000000    -0.023662   
C442     C      0.071560000000     0.970970000000     0.588480000000    -0.00574205 
C443     C      0.299160000000     0.697080000000     0.604450000000     0.0122745  
C444     C      0.310250000000     0.662830000000     0.553210000000    -0.043176   
C445     C      0.350440000000     0.668440000000     0.526990000000    -0.0254877  
C446     C      0.333130000000     0.678110000000     0.554770000000     0.0124003  
C447     C      0.380360000000     0.710920000000     0.556560000000    -0.0247118  
C448     C      0.361940000000     0.719270000000     0.583180000000     0.011506   
C449     C      0.293560000000     0.671920000000     0.577880000000    -0.0431285  
C450     C      0.339090000000     0.703490000000     0.581230000000    -0.00619783 
C451     C      0.367470000000     0.744660000000     0.609610000000    -0.0435209  
C452     C      0.350790000000     0.753770000000     0.634270000000    -0.0434405  
C453     C      0.310630000000     0.747990000000     0.660590000000    -0.0252473  
C454     C      0.327930000000     0.738410000000     0.632760000000     0.0126538  
C455     C      0.280590000000     0.705950000000     0.630740000000    -0.0245638  
C456     C      0.321980000000     0.712980000000     0.606320000000    -0.00622202 
C457     C      0.298780000000     0.968450000000     0.835940000000     0.0116921  
C458     C      0.310800000000     0.999690000000     0.888210000000    -0.0431312  
C459     C      0.351720000000     0.993810000000     0.911930000000    -0.0243667  
C460     C      0.333830000000     0.985430000000     0.884620000000     0.0112748  
C461     C      0.381550000000     0.954800000000     0.878600000000    -0.0255363  
C462     C      0.362460000000     0.947390000000     0.852640000000     0.0116986  
C463     C      0.293570000000     0.991590000000     0.864040000000    -0.0432276  
C464     C      0.339430000000     0.962090000000     0.856620000000    -0.00648189 
C465     C      0.367620000000     0.924000000000     0.824670000000    -0.0439946  
C466     C      0.350370000000     0.915860000000     0.800520000000    -0.0437831  
C467     C      0.309490000000     0.921920000000     0.776700000000    -0.0248392  
C468     C      0.327370000000     0.930210000000     0.804050000000     0.0114328  
C469     C      0.279580000000     0.960570000000     0.810270000000    -0.0250538  
C470     C      0.321770000000     0.953600000000     0.832030000000    -0.00644194 
C471     C      0.333780000000     0.665910000000     0.872990000000     0.0125712  
C472     C      0.292680000000     0.685410000000     0.871250000000    -0.0434745  
C473     C      0.278560000000     0.740990000000     0.836490000000    -0.0251725  
C474     C      0.298020000000     0.714660000000     0.848080000000     0.0133663  
C475     C      0.308870000000     0.776730000000     0.801120000000    -0.0250895  
C476     C      0.327260000000     0.749280000000     0.814230000000     0.0130191  
C477     C      0.310290000000     0.661120000000     0.883320000000    -0.0431799  
C478     C      0.321510000000     0.719960000000     0.837410000000    -0.00618871 
C479     C      0.350760000000     0.754240000000     0.804080000000    -0.0433512  
C480     C      0.368390000000     0.729950000000     0.816130000000    -0.0437403  
C481     C      0.382480000000     0.674220000000     0.850770000000    -0.0255146  
C482     C      0.363030000000     0.700650000000     0.839260000000     0.0130582  
C483     C      0.352250000000     0.638940000000     0.886630000000    -0.0247667  
C484     C      0.339540000000     0.695310000000     0.849900000000    -0.00621685 
C485     C      0.048950000000     0.947420000000     0.853810000000     0.0120096  
C486     C      0.060470000000     0.913660000000     0.802550000000    -0.0434478  
C487     C      0.101070000000     0.918580000000     0.777680000000    -0.0255369  
C488     C      0.083470000000     0.928270000000     0.805040000000     0.0135716  
C489     C      0.131030000000     0.959690000000     0.808810000000    -0.0259121  
C490     C      0.112260000000     0.968150000000     0.834880000000     0.0133922  
C491     C      0.043500000000     0.922830000000     0.826780000000    -0.0431977  
C492     C      0.089280000000     0.953060000000     0.831990000000    -0.00608549 
C493     C      0.117660000000     0.992970000000     0.861770000000    -0.0417795  
C494     C      0.100680000000     0.502200000000     0.885980000000    -0.0426646  
C495     C      0.060100000000     0.997180000000     0.910910000000    -0.0250677  
C496     C      0.077700000000     0.987510000000     0.883530000000     0.0139817  
C497     C      0.030070000000     0.956380000000     0.879580000000    -0.0239484  
C498     C      0.071900000000     0.962660000000     0.856620000000    -0.00591635 
C499     C      0.362790000000     0.949710000000     0.587500000000     0.0111134  
C500     C      0.350490000000     0.918960000000     0.639770000000    -0.0436169  
C501     C      0.308890000000     0.922140000000     0.661110000000    -0.0243739  
C502     C      0.327210000000     0.931390000000     0.634730000000     0.0122982  
C503     C      0.278980000000     0.958350000000     0.625760000000    -0.0250288  
C504     C      0.298330000000     0.966560000000     0.600600000000     0.0124295  
C505     C      0.368010000000     0.927710000000     0.616290000000    -0.0431523  
C506     C      0.321610000000     0.953640000000     0.606020000000    -0.00665258 
C507     C      0.293140000000     0.988830000000     0.571960000000    -0.0442982  
C508     C      0.310670000000     0.997600000000     0.548480000000    -0.0423393  
C509     C      0.352240000000     0.994220000000     0.527040000000    -0.0233695  
C510     C      0.333930000000     0.985070000000     0.553460000000     0.0113699  
C511     C      0.382230000000     0.958470000000     0.562650000000    -0.0235506  
C512     C      0.339530000000     0.962770000000     0.582150000000    -0.00561088 
H385     H      0.488930000000     0.502460000000     0.975050000000     0.194091   
H386     H      0.421620000000     0.587100000000     0.540010000000     0.191978   
H387     H      0.487570000000     0.662940000000     0.965440000000     0.195567   
H388     H      0.423060000000     0.575770000000     0.898540000000     0.197497   
H389     H      0.436720000000     0.548310000000     0.588520000000     0.131271   
H390     H      0.459410000000     0.622180000000     0.590470000000     0.197256   
H391     H      0.461610000000     0.718820000000     0.990750000000     0.127702   
H392     H      0.442440000000     0.718200000000     0.927980000000     0.195672   
H393     H      0.468060000000     0.607540000000     0.850420000000     0.138637   
H394     H      0.447510000000     0.536650000000     0.848620000000     0.189104   
H395     H      0.446290000000     0.946110000000     0.948460000000     0.137914   
H396     H      0.468410000000     0.946490000000     0.510080000000     0.188349   
H397     H      0.462510000000     0.718430000000     0.896840000000     0.199867   
H398     H      0.462980000000     0.995680000000     0.850420000000     0.202207   
H399     H      0.452280000000     0.946480000000     0.545620000000     0.200528   
H400     H      0.447550000000     0.666280000000     0.589580000000     0.201104   
H401     H      0.172220000000     0.913980000000     0.713050000000     0.194774   
H402     H      0.238120000000     0.840350000000     0.789420000000     0.195936   
H403     H      0.173530000000     0.753470000000     0.722310000000     0.191563   
H404     H      0.239410000000     0.829450000000     0.647910000000     0.194808   
H405     H      0.212630000000     0.875690000000     0.834700000000     0.128771   
H406     H      0.192210000000     0.805670000000     0.842620000000     0.197496   
H407     H      0.197080000000     0.701660000000     0.758710000000     0.126684   
H408     H      0.196370000000     0.691630000000     0.692200000000     0.185768   
H409     H      0.197020000000     0.793270000000     0.602430000000     0.138976   
H410     H      0.219920000000     0.862670000000     0.594430000000     0.189288   
H411     H      0.211330000000     0.966790000000     0.680290000000     0.13742    
H412     H      0.193300000000     0.976020000000     0.743610000000     0.189247   
H413     H      0.213880000000     0.688790000000     0.658130000000     0.201631   
H414     H      0.201990000000     0.900530000000     0.589500000000     0.201194   
H415     H      0.215180000000     0.980140000000     0.771880000000     0.201715   
H416     H      0.213210000000     0.772220000000     0.847290000000     0.200269   
H417     H      0.148660000000     0.713900000000     0.610970000000     0.0481844  
H418     H      0.025650000000     0.734150000000     0.545660000000     0.0396164  
H419     H      0.099660000000     0.727640000000     0.682230000000     0.0381689  
H420     H      0.061960000000     0.640700000000     0.518970000000     0.0489996  
H421     H      0.025590000000     0.751820000000     0.618620000000     0.036427   
H422     H      0.056350000000     0.767860000000     0.659600000000     0.0355676  
H423     H      0.099140000000     0.776870000000     0.668080000000     0.0488277  
H424     H      0.012300000000     0.703430000000     0.576550000000     0.0477731  
H425     H      0.135400000000     0.665460000000     0.568750000000     0.0369517  
H426     H      0.135010000000     0.682910000000     0.641890000000     0.0376113  
H427     H      0.104650000000     0.649420000000     0.527760000000     0.0357875  
H428     H      0.061270000000     0.690010000000     0.505120000000     0.0384835  
H429     H      0.059820000000     0.685850000000     0.931000000000     0.0386339  
H430     H      0.098460000000     0.778900000000     0.771110000000     0.0487541  
H431     H      0.012410000000     0.695260000000     0.856720000000     0.0458762  
H432     H      0.136760000000     0.687670000000     0.798220000000     0.0376686  
H433     H      0.055860000000     0.764170000000     0.776020000000     0.0358863  
H434     H      0.024720000000     0.744620000000     0.815130000000     0.0360773  
H435     H      0.024010000000     0.727620000000     0.888300000000     0.0356267  
H436     H      0.101250000000     0.730690000000     0.755800000000     0.0381412  
H437     H      0.105200000000     0.651380000000     0.910990000000     0.0360751  
H438     H      0.062540000000     0.637010000000     0.916190000000     0.049174   
H439     H      0.136340000000     0.670800000000     0.871810000000     0.0368425  
H440     H      0.148720000000     0.719470000000     0.829960000000     0.0479016  
H441     H      0.148790000000     0.940260000000     0.601230000000     0.0464155  
H442     H      0.025580000000     0.514280000000     0.610120000000     0.0432927  
H443     H      0.100570000000     0.860630000000     0.619600000000     0.0428272  
H444     H      0.062310000000     0.535680000000     0.526730000000     0.0489525  
H445     H      0.025330000000     0.932840000000     0.632720000000     0.0366993  
H446     H      0.056200000000     0.888640000000     0.651430000000     0.0361199  
H447     H      0.098860000000     0.880990000000     0.661480000000     0.0489604  
H448     H      0.012290000000     0.975860000000     0.586770000000     0.0478308  
H449     H      0.135770000000     0.983400000000     0.555210000000     0.0363266  
H450     H      0.135190000000     0.901730000000     0.577770000000     0.0392221  
H451     H      0.104910000000     0.527620000000     0.536500000000     0.0363119  
H452     H      0.060530000000     0.555740000000     0.568710000000     0.0434657  
H453     H      0.397720000000     0.708510000000     0.569600000000     0.0455108  
H454     H      0.279350000000     0.681180000000     0.648450000000     0.039398   
H455     H      0.346310000000     0.686180000000     0.504330000000     0.042382   
H456     H      0.313280000000     0.778670000000     0.667630000000     0.0488985  
H457     H      0.276100000000     0.659340000000     0.576150000000     0.0364623  
H458     H      0.305300000000     0.643640000000     0.532770000000     0.0365511  
H459     H      0.347850000000     0.637690000000     0.520150000000     0.0487248  
H460     H      0.263250000000     0.708240000000     0.617630000000     0.0463142  
H461     H      0.384900000000     0.757370000000     0.611240000000     0.0360773  
H462     H      0.381250000000     0.735620000000     0.538730000000     0.0421598  
H463     H      0.355710000000     0.773050000000     0.654650000000     0.0364063  
H464     H      0.314710000000     0.730050000000     0.683160000000     0.0426219  
H465     H      0.398470000000     0.959080000000     0.864770000000     0.0465827  
H466     H      0.277390000000     0.986460000000     0.794050000000     0.038262   
H467     H      0.348460000000     0.974310000000     0.933760000000     0.0397787  
H468     H      0.312450000000     0.891920000000     0.767880000000     0.0483506  
H469     H      0.276000000000     0.503340000000     0.867380000000     0.0367031  
H470     H      0.306150000000     0.517290000000     0.909870000000     0.0356757  
H471     H      0.348780000000     0.523860000000     0.920650000000     0.0484712  
H472     H      0.262670000000     0.956420000000     0.824150000000     0.0454999  
H473     H      0.385160000000     0.912120000000     0.821430000000     0.0362822  
H474     H      0.383410000000     0.928980000000     0.894980000000     0.0411464  
H475     H      0.355020000000     0.898170000000     0.778920000000     0.0354564  
H476     H      0.312750000000     0.941520000000     0.754940000000     0.0397409  
H477     H      0.312830000000     0.782330000000     0.773930000000     0.0494283  
H478     H      0.350730000000     0.610990000000     0.873130000000     0.0412308  
H479     H      0.274880000000     0.762320000000     0.856800000000     0.0360576  
H480     H      0.398690000000     0.691860000000     0.854240000000     0.0494783  
H481     H      0.305610000000     0.638520000000     0.900980000000     0.0362526  
H482     H      0.274720000000     0.681330000000     0.880010000000     0.0365713  
H483     H      0.262430000000     0.723220000000     0.832720000000     0.047945   
H484     H      0.348190000000     0.633380000000     0.913790000000     0.0487677  
H485     H      0.355470000000     0.776970000000     0.786550000000     0.0361641  
H486     H      0.310350000000     0.804360000000     0.815140000000     0.0409199  
H487     H      0.386360000000     0.734100000000     0.807440000000     0.0371383  
H488     H      0.385960000000     0.652690000000     0.830550000000     0.0412881  
H489     H      0.148100000000     0.956250000000     0.822460000000     0.0511328  
H490     H      0.028210000000     0.931310000000     0.896830000000     0.0399989  
H491     H      0.097390000000     0.936690000000     0.755080000000     0.0404012  
H492     H      0.062880000000     0.527750000000     0.918220000000     0.0496433  
H493     H      0.025950000000     0.910780000000     0.824340000000     0.0358236  
H494     H      0.055650000000     0.894940000000     0.781730000000     0.0365008  
H495     H      0.098340000000     0.887960000000     0.770500000000     0.0498145  
H496     H      0.013000000000     0.959570000000     0.865900000000     0.044936   
H497     H      0.135190000000     0.505160000000     0.864120000000     0.0376512  
H498     H      0.132610000000     0.984750000000     0.791480000000     0.0380159  
H499     H      0.105480000000     0.521030000000     0.906740000000     0.0367114  
H500     H      0.063720000000     0.978950000000     0.933450000000     0.0406243  
H501     H      0.262430000000     0.953100000000     0.611270000000     0.0471485  
H502     H      0.385250000000     0.932680000000     0.546570000000     0.0384454  
H503     H      0.310840000000     0.942430000000     0.682690000000     0.039953   
H504     H      0.348570000000     0.523670000000     0.517340000000     0.0485921  
H505     H      0.385810000000     0.917390000000     0.620670000000     0.0356047  
H506     H      0.355100000000     0.902260000000     0.662000000000     0.0358687  
H507     H      0.312520000000     0.892600000000     0.670620000000     0.0488331  
H508     H      0.398770000000     0.963580000000     0.577200000000     0.043301   
H509     H      0.275370000000     0.999300000000     0.567660000000     0.0366954  
H510     H      0.276290000000     0.984120000000     0.641970000000     0.0402805  
H511     H      0.306070000000     0.514410000000     0.526310000000     0.0358103  
H512     H      0.350350000000     0.973740000000     0.505580000000     0.0398783  
N49      N      0.034330000000     0.675270000000     0.540020000000    -0.162305   
N50      N      0.126710000000     0.741940000000     0.647350000000    -0.162753   
N51      N      0.126710000000     0.745990000000     0.792760000000    -0.163813   
N52      N      0.034400000000     0.669530000000     0.894370000000    -0.163845   
N53      N      0.034510000000     0.513740000000     0.558020000000    -0.162911   
N54      N      0.126630000000     0.902690000000     0.630010000000    -0.163277   
N55      N      0.285950000000     0.741080000000     0.650250000000    -0.162405   
N56      N      0.375110000000     0.675570000000     0.537280000000    -0.162737   
N57      N      0.284960000000     0.927160000000     0.788570000000    -0.162974   
N58      N      0.376240000000     0.988460000000     0.900040000000    -0.162302   
N59      N      0.376420000000     0.653970000000     0.882430000000    -0.163365   
N60      N      0.284700000000     0.761570000000     0.805020000000    -0.163396   
N61      N      0.035510000000     0.990940000000     0.899840000000    -0.162584   
N62      N      0.125660000000     0.925010000000     0.788680000000    -0.162196   
N63      N      0.376410000000     0.991480000000     0.540760000000    -0.1644     
N64      N      0.284710000000     0.925110000000     0.647440000000    -0.163957   
O193     O      0.415810000000     0.999780000000     0.907830000000    -0.372305   
O194     O      0.388660000000     0.536410000000     0.935220000000    -0.368397   
O195     O      0.495230000000     0.517910000000     0.545010000000    -0.369624   
O196     O      0.022300000000     0.547780000000     0.511840000000    -0.372426   
O197     O      0.415620000000     0.505870000000     0.535630000000    -0.381802   
O198     O      0.388480000000     0.539480000000     0.505460000000    -0.373915   
O199     O      0.496030000000     0.501990000000     0.907340000000    -0.374923   
O200     O      0.022830000000     0.538260000000     0.935730000000    -0.373044   
O201     O      0.456690000000     0.951370000000     0.928840000000    -0.351392   
O202     O      0.455440000000     0.517060000000     0.861730000000    -0.525548   
O203     O      0.459470000000     0.960280000000     0.527030000000    -0.524942   
O204     O      0.451770000000     0.534490000000     0.584680000000    -0.348968   
O205     O      0.432990000000     0.524270000000     0.972820000000    -0.498306   
O206     O      0.478470000000     0.524320000000     0.973350000000    -0.632073   
O207     O      0.495180000000     0.655700000000     0.900410000000    -0.382553   
O208     O      0.022320000000     0.623780000000     0.932000000000    -0.373011   
O209     O      0.414620000000     0.664520000000     0.529770000000    -0.373853   
O210     O      0.387820000000     0.626860000000     0.502820000000    -0.372917   
O211     O      0.494800000000     0.663260000000     0.532800000000    -0.370581   
O212     O      0.021970000000     0.628170000000     0.503920000000    -0.368881   
O213     O      0.415600000000     0.649320000000     0.895490000000    -0.374376   
O214     O      0.388460000000     0.618380000000     0.927790000000    -0.37324    
O215     O      0.453030000000     0.704470000000     0.913070000000    -0.52884    
O216     O      0.457470000000     0.629730000000     0.854450000000    -0.348876   
O217     O      0.455320000000     0.713080000000     0.513610000000    -0.34396    
O218     O      0.453670000000     0.644050000000     0.577790000000    -0.528056   
O219     O      0.477560000000     0.640510000000     0.966490000000    -0.635109   
O220     O      0.432280000000     0.640280000000     0.965930000000    -0.49817    
O221     O      0.478460000000     0.578420000000     0.918340000000    -0.498661   
O222     O      0.432150000000     0.585890000000     0.520790000000    -0.632581   
O223     O      0.433080000000     0.577810000000     0.918260000000    -0.634613   
O224     O      0.477810000000     0.586540000000     0.520740000000    -0.494769   
O225     O      0.245470000000     0.910860000000     0.652580000000    -0.37662    
O226     O      0.272610000000     0.876950000000     0.682520000000    -0.373254   
O227     O      0.165140000000     0.914030000000     0.781100000000    -0.372129   
O228     O      0.138350000000     0.877970000000     0.752510000000    -0.373053   
O229     O      0.245400000000     0.915890000000     0.780710000000    -0.376343   
O230     O      0.272540000000     0.879660000000     0.752890000000    -0.368382   
O231     O      0.165930000000     0.898510000000     0.642960000000    -0.373849   
O232     O      0.138860000000     0.868810000000     0.676270000000    -0.372834   
O233     O      0.201320000000     0.956880000000     0.661680000000    -0.351759   
O234     O      0.210030000000     0.882470000000     0.604130000000    -0.526145   
O235     O      0.204500000000     0.964250000000     0.758900000000    -0.526801   
O236     O      0.205450000000     0.900090000000     0.826910000000    -0.34245    
O237     O      0.228190000000     0.892120000000     0.715230000000    -0.497375   
O238     O      0.182670000000     0.892110000000     0.714720000000    -0.632551   
O239     O      0.166250000000     0.753690000000     0.654720000000    -0.373909   
O240     O      0.139110000000     0.788620000000     0.683820000000    -0.369497   
O241     O      0.245530000000     0.766390000000     0.791930000000    -0.377187   
O242     O      0.272690000000     0.797760000000     0.759990000000    -0.372925   
O243     O      0.165950000000     0.759870000000     0.786950000000    -0.380547   
O244     O      0.138830000000     0.792370000000     0.755770000000    -0.37288    
O245     O      0.246470000000     0.752260000000     0.657750000000    -0.373721   
O246     O      0.273290000000     0.789550000000     0.685010000000    -0.372489   
O247     O      0.205440000000     0.704080000000     0.674620000000    -0.522855   
O248     O      0.207560000000     0.772020000000     0.609500000000    -0.351529   
O249     O      0.208200000000     0.711250000000     0.776120000000    -0.340707   
O250     O      0.203280000000     0.787700000000     0.832780000000    -0.52979    
O251     O      0.183550000000     0.775890000000     0.721420000000    -0.63477    
O252     O      0.228790000000     0.776060000000     0.722000000000    -0.493405   
O253     O      0.183310000000     0.829950000000     0.667260000000    -0.498296   
O254     O      0.228070000000     0.838470000000     0.769720000000    -0.63462    
O255     O      0.228930000000     0.830550000000     0.667190000000    -0.632934   
O256     O      0.182680000000     0.837950000000     0.769670000000    -0.497585   
Zr37     Zr     0.455890000000     0.521010000000     0.922700000000     1.3738     
Zr38     Zr     0.455390000000     0.529140000000     0.523340000000     1.37489    
Zr39     Zr     0.455360000000     0.635360000000     0.915860000000     1.3764     
Zr40     Zr     0.454750000000     0.643190000000     0.516760000000     1.37463    
Zr41     Zr     0.410600000000     0.581900000000     0.969080000000     1.37738    
Zr42     Zr     0.000100000000     0.582890000000     0.969810000000     1.37683    
Zr43     Zr     0.205740000000     0.887350000000     0.664740000000     1.3762     
Zr44     Zr     0.205280000000     0.895350000000     0.765350000000     1.37376    
Zr45     Zr     0.206320000000     0.773250000000     0.671150000000     1.37372    
Zr46     Zr     0.205730000000     0.780990000000     0.772100000000     1.37662    
Zr47     Zr     0.250520000000     0.834420000000     0.718870000000     1.37791    
Zr48     Zr     0.161040000000     0.833550000000     0.718190000000     1.3779     
C513     C      0.894240000000     0.008970000000     0.414860000000     0.386244   
C514     C      0.516710000000     0.026750000000     0.037410000000     0.393      
C515     C      0.894140000000     0.013250000000     0.026960000000     0.394177   
C516     C      0.517480000000     0.011280000000     0.414720000000     0.389915   
C517     C      0.516680000000     0.148550000000     0.409160000000     0.391581   
C518     C      0.893160000000     0.154870000000     0.022780000000     0.389191   
C519     C      0.516370000000     0.154690000000     0.025200000000     0.387899   
C520     C      0.894120000000     0.140440000000     0.402900000000     0.39036    
C521     C      0.766960000000     0.403330000000     0.161170000000     0.393851   
C522     C      0.643700000000     0.404790000000     0.273680000000     0.389441   
C523     C      0.766970000000     0.406810000000     0.273560000000     0.388067   
C524     C      0.644450000000     0.389730000000     0.150620000000     0.394158   
C525     C      0.644690000000     0.262290000000     0.162350000000     0.387263   
C526     C      0.767020000000     0.275370000000     0.284640000000     0.392718   
C527     C      0.644450000000     0.267190000000     0.278280000000     0.389646   
C528     C      0.767930000000     0.261760000000     0.164840000000     0.3909     
C529     C      0.548340000000     0.217630000000     0.086550000000     0.0122149  
C530     C      0.560870000000     0.250200000000     0.137930000000    -0.0437675  
C531     C      0.602310000000     0.246660000000     0.159920000000    -0.0250622  
C532     C      0.584070000000     0.237030000000     0.133460000000     0.012044   
C533     C      0.632180000000     0.208600000000     0.125620000000    -0.0255462  
C534     C      0.612710000000     0.200000000000     0.100610000000     0.0125816  
C535     C      0.543300000000     0.240910000000     0.114630000000    -0.0435746  
C536     C      0.589520000000     0.213600000000     0.105470000000    -0.0064631  
C537     C      0.617720000000     0.176500000000     0.072660000000    -0.0437514  
C538     C      0.600140000000     0.167170000000     0.049380000000    -0.0434845  
C539     C      0.558710000000     0.170810000000     0.027340000000    -0.0248868  
C540     C      0.576950000000     0.180410000000     0.053800000000     0.0120639  
C541     C      0.528780000000     0.208490000000     0.061840000000    -0.0248101  
C542     C      0.571510000000     0.203890000000     0.081770000000    -0.00616538 
C543     C      0.583980000000     0.236170000000     0.303710000000     0.0122243  
C544     C      0.542700000000     0.235540000000     0.320080000000    -0.0433599  
C545     C      0.528240000000     0.202240000000     0.372280000000    -0.0247196  
C546     C      0.547920000000     0.212720000000     0.348370000000     0.0125519  
C547     C      0.558530000000     0.167040000000     0.408290000000    -0.0244698  
C548     C      0.577060000000     0.179020000000     0.383100000000     0.0124853  
C549     C      0.560460000000     0.246830000000     0.297860000000    -0.0431852  
C550     C      0.571430000000     0.201760000000     0.354720000000    -0.00598349 
C551     C      0.600580000000     0.168550000000     0.389050000000    -0.0432129  
C552     C      0.618360000000     0.179800000000     0.366830000000    -0.0436815  
C553     C      0.632770000000     0.212940000000     0.314500000000    -0.025135   
C554     C      0.613130000000     0.202560000000     0.338490000000     0.012682   
C555     C      0.602580000000     0.248870000000     0.278900000000    -0.0240794  
C556     C      0.589620000000     0.213500000000     0.332140000000    -0.00607674 
C557     C      0.548290000000     0.466350000000     0.100420000000     0.0120566  
C558     C      0.560760000000     0.411570000000     0.134040000000    -0.0436178  
C559     C      0.602460000000     0.387670000000     0.134390000000    -0.0250731  
C560     C      0.584050000000     0.415950000000     0.122730000000     0.01246    
C561     C      0.632320000000     0.423110000000     0.098300000000    -0.024722   
C562     C      0.612880000000     0.450200000000     0.087860000000     0.0123875  
C563     C      0.543140000000     0.436680000000     0.123260000000    -0.0436469  
C564     C      0.589580000000     0.445490000000     0.099670000000    -0.00632977 
C565     C      0.617980000000     0.479680000000     0.064780000000    -0.0433832  
C566     C      0.600360000000     0.004770000000     0.053980000000    -0.043973   
C567     C      0.558680000000     0.028810000000     0.053780000000    -0.0250097  
C568     C      0.577070000000     0.000460000000     0.065370000000     0.0119082  
C569     C      0.528750000000     0.493050000000     0.089550000000    -0.0246922  
C570     C      0.571560000000     0.470970000000     0.088480000000    -0.00641173 
C571     C      0.799150000000     0.197080000000     0.104450000000     0.0122638  
C572     C      0.810250000000     0.162830000000     0.053210000000    -0.0431718  
C573     C      0.850450000000     0.168440000000     0.026990000000    -0.0253533  
C574     C      0.833120000000     0.178110000000     0.054770000000     0.0123343  
C575     C      0.880360000000     0.210920000000     0.056560000000    -0.0247447  
C576     C      0.861940000000     0.219270000000     0.083180000000     0.0115024  
C577     C      0.793560000000     0.171920000000     0.077880000000    -0.0431529  
C578     C      0.839080000000     0.203500000000     0.081230000000    -0.00618245 
C579     C      0.867470000000     0.244660000000     0.109610000000    -0.043511   
C580     C      0.850790000000     0.253770000000     0.134270000000    -0.0434636  
C581     C      0.810630000000     0.247990000000     0.160590000000    -0.0252703  
C582     C      0.827920000000     0.238410000000     0.132760000000     0.0126636  
C583     C      0.780590000000     0.205950000000     0.130740000000    -0.0245541  
C584     C      0.821970000000     0.212990000000     0.106330000000    -0.00623581 
C585     C      0.798780000000     0.468450000000     0.335940000000     0.0117398  
C586     C      0.810800000000     0.499700000000     0.388210000000    -0.0436848  
C587     C      0.851720000000     0.493810000000     0.411930000000    -0.0249826  
C588     C      0.833830000000     0.485430000000     0.384620000000     0.0114929  
C589     C      0.881550000000     0.454800000000     0.378600000000    -0.0255811  
C590     C      0.862460000000     0.447400000000     0.352640000000     0.0117205  
C591     C      0.793570000000     0.491590000000     0.364040000000    -0.0436251  
C592     C      0.839430000000     0.462090000000     0.356620000000    -0.00659095 
C593     C      0.867620000000     0.424000000000     0.324670000000    -0.0440236  
C594     C      0.850370000000     0.415860000000     0.300520000000    -0.0437808  
C595     C      0.809490000000     0.421920000000     0.276700000000    -0.024879   
C596     C      0.827370000000     0.430210000000     0.304060000000     0.0114233  
C597     C      0.779580000000     0.460570000000     0.310270000000    -0.0250568  
C598     C      0.821770000000     0.453600000000     0.332030000000    -0.00645158 
C599     C      0.833780000000     0.165910000000     0.372990000000     0.0125549  
C600     C      0.792680000000     0.185410000000     0.371250000000    -0.043478   
C601     C      0.778560000000     0.240990000000     0.336490000000    -0.0251645  
C602     C      0.798020000000     0.214660000000     0.348080000000     0.0133387  
C603     C      0.808860000000     0.276730000000     0.301120000000    -0.0249894  
C604     C      0.827260000000     0.249280000000     0.314230000000     0.0129403  
C605     C      0.810290000000     0.161120000000     0.383320000000    -0.0431931  
C606     C      0.821510000000     0.219960000000     0.337410000000    -0.00615408 
C607     C      0.850760000000     0.254240000000     0.304080000000    -0.0432836  
C608     C      0.868390000000     0.229950000000     0.316130000000    -0.0438381  
C609     C      0.882480000000     0.174220000000     0.350770000000    -0.0256008  
C610     C      0.863030000000     0.200640000000     0.339260000000     0.0131149  
C611     C      0.852250000000     0.138940000000     0.386630000000    -0.0247272  
C612     C      0.839540000000     0.195310000000     0.349900000000    -0.00625372 
C613     C      0.548950000000     0.447430000000     0.353810000000     0.0117625  
C614     C      0.560480000000     0.413660000000     0.302550000000    -0.0435789  
C615     C      0.601080000000     0.418580000000     0.277680000000    -0.0254803  
C616     C      0.583470000000     0.428270000000     0.305050000000     0.013722   
C617     C      0.631020000000     0.459690000000     0.308820000000    -0.026211   
C618     C      0.612260000000     0.468150000000     0.334880000000     0.0140419  
C619     C      0.543510000000     0.422830000000     0.326780000000    -0.0430047  
C620     C      0.589280000000     0.453070000000     0.331990000000    -0.0065611  
C621     C      0.617660000000     0.492970000000     0.361770000000    -0.0434811  
C622     C      0.600680000000     0.002200000000     0.385980000000    -0.044354   
C623     C      0.560100000000     0.497180000000     0.410910000000    -0.0252392  
C624     C      0.577700000000     0.487520000000     0.383530000000     0.0130243  
C625     C      0.530070000000     0.456380000000     0.379590000000    -0.0237863  
C626     C      0.571890000000     0.462660000000     0.356630000000    -0.00544125 
C627     C      0.862790000000     0.449710000000     0.087500000000     0.0111825  
C628     C      0.850490000000     0.418960000000     0.139770000000    -0.0435774  
C629     C      0.808900000000     0.422140000000     0.161110000000    -0.0244167  
C630     C      0.827210000000     0.431390000000     0.134730000000     0.012256   
C631     C      0.778980000000     0.458350000000     0.125760000000    -0.0250098  
C632     C      0.798330000000     0.466560000000     0.100600000000     0.0122411  
C633     C      0.868010000000     0.427710000000     0.116290000000    -0.0432199  
C634     C      0.821610000000     0.453640000000     0.106020000000    -0.00653957 
C635     C      0.793140000000     0.488830000000     0.071960000000    -0.0439714  
C636     C      0.810670000000     0.497600000000     0.048480000000    -0.0432093  
C637     C      0.852240000000     0.494220000000     0.027040000000    -0.0240309  
C638     C      0.833930000000     0.485070000000     0.053460000000     0.0117389  
C639     C      0.882230000000     0.458470000000     0.062650000000    -0.0236159  
C640     C      0.839530000000     0.462770000000     0.082150000000    -0.00582759 
H513     H      0.988940000000     0.002460000000     0.475050000000     0.193934   
H514     H      0.921620000000     0.087100000000     0.040010000000     0.191958   
H515     H      0.987570000000     0.162940000000     0.465440000000     0.195691   
H516     H      0.923060000000     0.075760000000     0.398540000000     0.197476   
H517     H      0.936710000000     0.048310000000     0.088510000000     0.131083   
H518     H      0.959420000000     0.122190000000     0.090470000000     0.197504   
H519     H      0.961610000000     0.218820000000     0.490750000000     0.127817   
H520     H      0.942440000000     0.218200000000     0.427990000000     0.195619   
H521     H      0.968060000000     0.107540000000     0.350420000000     0.138676   
H522     H      0.947510000000     0.036650000000     0.348620000000     0.189219   
H523     H      0.946290000000     0.446110000000     0.448460000000     0.137901   
H524     H      0.968410000000     0.446490000000     0.010080000000     0.188311   
H525     H      0.962510000000     0.218430000000     0.396850000000     0.200072   
H526     H      0.962980000000     0.495680000000     0.350420000000     0.201847   
H527     H      0.952280000000     0.446490000000     0.045620000000     0.200745   
H528     H      0.947550000000     0.166280000000     0.089580000000     0.201302   
H529     H      0.672220000000     0.413980000000     0.213050000000     0.194742   
H530     H      0.738120000000     0.340350000000     0.289420000000     0.195915   
H531     H      0.673530000000     0.253460000000     0.222310000000     0.191186   
H532     H      0.739410000000     0.329450000000     0.147910000000     0.194647   
H533     H      0.712630000000     0.375680000000     0.334700000000     0.128664   
H534     H      0.692210000000     0.305670000000     0.342610000000     0.197448   
H535     H      0.697080000000     0.201670000000     0.258710000000     0.126707   
H536     H      0.696370000000     0.191630000000     0.192200000000     0.185774   
H537     H      0.697020000000     0.293270000000     0.102430000000     0.138967   
H538     H      0.719920000000     0.362670000000     0.094430000000     0.189337   
H539     H      0.711340000000     0.466790000000     0.180290000000     0.137232   
H540     H      0.693300000000     0.476020000000     0.243610000000     0.189143   
H541     H      0.713870000000     0.188790000000     0.158130000000     0.201747   
H542     H      0.701990000000     0.400530000000     0.089510000000     0.201573   
H543     H      0.715180000000     0.480150000000     0.271880000000     0.201508   
H544     H      0.713220000000     0.272210000000     0.347300000000     0.199857   
H545     H      0.648650000000     0.213900000000     0.110970000000     0.0481917  
H546     H      0.525650000000     0.234150000000     0.045660000000     0.0397134  
H547     H      0.599660000000     0.227650000000     0.182240000000     0.0381528  
H548     H      0.561950000000     0.140690000000     0.018970000000     0.0489717  
H549     H      0.525590000000     0.251820000000     0.118620000000     0.0364976  
H550     H      0.556350000000     0.267860000000     0.159600000000     0.0355903  
H551     H      0.599140000000     0.276870000000     0.168080000000     0.0488164  
H552     H      0.512300000000     0.203430000000     0.076550000000     0.0479104  
H553     H      0.635400000000     0.165450000000     0.068750000000     0.036919   
H554     H      0.635010000000     0.182910000000     0.141890000000     0.0375886  
H555     H      0.604650000000     0.149410000000     0.027760000000     0.0357565  
H556     H      0.561270000000     0.190010000000     0.005120000000     0.0384831  
H557     H      0.559820000000     0.185850000000     0.431010000000     0.0386828  
H558     H      0.598470000000     0.278900000000     0.271110000000     0.048806   
H559     H      0.512410000000     0.195260000000     0.356720000000     0.0459849  
H560     H      0.636760000000     0.187670000000     0.298220000000     0.0376072  
H561     H      0.555860000000     0.264170000000     0.276030000000     0.0359521  
H562     H      0.524710000000     0.244610000000     0.315130000000     0.0360667  
H563     H      0.524010000000     0.227620000000     0.388300000000     0.0356984  
H564     H      0.601250000000     0.230690000000     0.255810000000     0.0381689  
H565     H      0.605200000000     0.151380000000     0.410990000000     0.0360517  
H566     H      0.562540000000     0.137010000000     0.416190000000     0.0491816  
H567     H      0.636350000000     0.170800000000     0.371820000000     0.0367799  
H568     H      0.648720000000     0.219470000000     0.329960000000     0.0478645  
H569     H      0.648780000000     0.440260000000     0.101230000000     0.0464075  
H570     H      0.525580000000     0.014280000000     0.110120000000     0.0428605  
H571     H      0.600570000000     0.360630000000     0.119600000000     0.0428815  
H572     H      0.562310000000     0.035670000000     0.026730000000     0.0489382  
H573     H      0.525330000000     0.432840000000     0.132730000000     0.0367711  
H574     H      0.556190000000     0.388640000000     0.151430000000     0.0361112  
H575     H      0.598860000000     0.380990000000     0.161480000000     0.0490064  
H576     H      0.512290000000     0.475860000000     0.086780000000     0.0480454  
H577     H      0.635770000000     0.483400000000     0.055210000000     0.0363353  
H578     H      0.635180000000     0.401730000000     0.077770000000     0.0392326  
H579     H      0.604910000000     0.027620000000     0.036500000000     0.036331   
H580     H      0.560530000000     0.055750000000     0.068710000000     0.0434209  
H581     H      0.897720000000     0.208510000000     0.069600000000     0.0455304  
H582     H      0.779340000000     0.181180000000     0.148450000000     0.039347   
H583     H      0.846320000000     0.186180000000     0.004320000000     0.0423528  
H584     H      0.813280000000     0.278670000000     0.167620000000     0.0489103  
H585     H      0.776100000000     0.159340000000     0.076150000000     0.0364228  
H586     H      0.805300000000     0.143640000000     0.032770000000     0.0365205  
H587     H      0.847850000000     0.137690000000     0.020150000000     0.0486739  
H588     H      0.763250000000     0.208240000000     0.117630000000     0.0463021  
H589     H      0.884900000000     0.257370000000     0.111240000000     0.036094   
H590     H      0.881250000000     0.235610000000     0.038730000000     0.0421923  
H591     H      0.855710000000     0.273040000000     0.154650000000     0.0364266  
H592     H      0.814710000000     0.230050000000     0.183160000000     0.0426126  
H593     H      0.898460000000     0.459080000000     0.364770000000     0.046555   
H594     H      0.777390000000     0.486460000000     0.294060000000     0.0381791  
H595     H      0.848460000000     0.474310000000     0.433760000000     0.0398353  
H596     H      0.812450000000     0.391920000000     0.267880000000     0.0483562  
H597     H      0.776000000000     0.003340000000     0.367380000000     0.0362474  
H598     H      0.806150000000     0.017280000000     0.409870000000     0.0352693  
H599     H      0.848770000000     0.023860000000     0.420640000000     0.0480716  
H600     H      0.762670000000     0.456420000000     0.324160000000     0.0454313  
H601     H      0.885160000000     0.412120000000     0.321430000000     0.036293   
H602     H      0.883410000000     0.428980000000     0.394980000000     0.0411625  
H603     H      0.855010000000     0.398160000000     0.278920000000     0.0354496  
H604     H      0.812750000000     0.441520000000     0.254940000000     0.0397129  
H605     H      0.812830000000     0.282330000000     0.273930000000     0.0493933  
H606     H      0.850730000000     0.110990000000     0.373130000000     0.0411743  
H607     H      0.774880000000     0.262320000000     0.356800000000     0.0360604  
H608     H      0.898690000000     0.191850000000     0.354240000000     0.0495201  
H609     H      0.805610000000     0.138520000000     0.400980000000     0.0362265  
H610     H      0.774720000000     0.181330000000     0.380010000000     0.036551   
H611     H      0.762430000000     0.223220000000     0.332720000000     0.0479313  
H612     H      0.848190000000     0.133380000000     0.413800000000     0.0487513  
H613     H      0.855470000000     0.276970000000     0.286550000000     0.0361528  
H614     H      0.810350000000     0.304350000000     0.315140000000     0.0409008  
H615     H      0.886350000000     0.234090000000     0.307440000000     0.0372052  
H616     H      0.885960000000     0.152690000000     0.330550000000     0.0412854  
H617     H      0.648090000000     0.456250000000     0.322460000000     0.051141   
H618     H      0.528210000000     0.431300000000     0.396830000000     0.0399985  
H619     H      0.597390000000     0.436690000000     0.255080000000     0.0403455  
H620     H      0.562880000000     0.027750000000     0.418220000000     0.0493676  
H621     H      0.525950000000     0.410780000000     0.324340000000     0.0358101  
H622     H      0.555650000000     0.394940000000     0.281730000000     0.0365428  
H623     H      0.598330000000     0.387960000000     0.270500000000     0.0497816  
H624     H      0.513000000000     0.459570000000     0.365900000000     0.0449398  
H625     H      0.635190000000     0.005150000000     0.364120000000     0.0369028  
H626     H      0.632600000000     0.484750000000     0.291480000000     0.0379934  
H627     H      0.605480000000     0.021030000000     0.406740000000     0.0370185  
H628     H      0.563720000000     0.478950000000     0.433450000000     0.0405502  
H629     H      0.762430000000     0.453100000000     0.111270000000     0.0471118  
H630     H      0.885250000000     0.432680000000     0.046570000000     0.0384463  
H631     H      0.810840000000     0.442430000000     0.182690000000     0.0399345  
H632     H      0.848570000000     0.023660000000     0.017340000000     0.0482172  
H633     H      0.885810000000     0.417390000000     0.120670000000     0.0356156  
H634     H      0.855100000000     0.402250000000     0.162000000000     0.0358468  
H635     H      0.812520000000     0.392600000000     0.170620000000     0.0488515  
H636     H      0.898770000000     0.463580000000     0.077190000000     0.043219   
H637     H      0.775370000000     0.499310000000     0.067670000000     0.0364956  
H638     H      0.776290000000     0.484120000000     0.141970000000     0.0402016  
H639     H      0.806070000000     0.014410000000     0.026310000000     0.0352784  
H640     H      0.850350000000     0.473740000000     0.005580000000     0.0399446  
N65      N      0.534330000000     0.175270000000     0.040020000000    -0.16231    
N66      N      0.626710000000     0.241940000000     0.147350000000    -0.162754   
N67      N      0.626710000000     0.245990000000     0.292760000000    -0.163798   
N68      N      0.534390000000     0.169530000000     0.394370000000    -0.16399    
N69      N      0.534510000000     0.013740000000     0.058010000000    -0.163317   
N70      N      0.626640000000     0.402690000000     0.130010000000    -0.163313   
N71      N      0.785950000000     0.241080000000     0.150250000000    -0.162392   
N72      N      0.875110000000     0.175570000000     0.037280000000    -0.162731   
N73      N      0.784960000000     0.427160000000     0.288580000000    -0.162921   
N74      N      0.876240000000     0.488460000000     0.400040000000    -0.162533   
N75      N      0.876420000000     0.153970000000     0.382430000000    -0.163264   
N76      N      0.784700000000     0.261570000000     0.305020000000    -0.163415   
N77      N      0.535510000000     0.490940000000     0.399840000000    -0.162852   
N78      N      0.625660000000     0.425010000000     0.288680000000    -0.162123   
N79      N      0.876410000000     0.491480000000     0.040760000000    -0.164576   
N80      N      0.784720000000     0.425110000000     0.147440000000    -0.163867   
O257     O      0.915810000000     0.499780000000     0.407830000000    -0.372976   
O258     O      0.888670000000     0.036420000000     0.435220000000    -0.368264   
O259     O      0.995230000000     0.017910000000     0.045010000000    -0.369346   
O260     O      0.522310000000     0.047780000000     0.011840000000    -0.37234    
O261     O      0.915630000000     0.005870000000     0.035630000000    -0.381801   
O262     O      0.888470000000     0.039480000000     0.005470000000    -0.373698   
O263     O      0.996030000000     0.001980000000     0.407340000000    -0.374301   
O264     O      0.522830000000     0.038260000000     0.435730000000    -0.373178   
O265     O      0.956690000000     0.451380000000     0.428840000000    -0.351561   
O266     O      0.955440000000     0.017060000000     0.361730000000    -0.526243   
O267     O      0.959460000000     0.460280000000     0.027030000000    -0.525284   
O268     O      0.951770000000     0.034490000000     0.084680000000    -0.348917   
O269     O      0.932990000000     0.024270000000     0.472820000000    -0.498439   
O270     O      0.978470000000     0.024320000000     0.473360000000    -0.631718   
O271     O      0.995180000000     0.155700000000     0.400410000000    -0.381977   
O272     O      0.522310000000     0.123770000000     0.432000000000    -0.373269   
O273     O      0.914620000000     0.164520000000     0.029770000000    -0.37383    
O274     O      0.887820000000     0.126860000000     0.002820000000    -0.372909   
O275     O      0.994800000000     0.163270000000     0.032800000000    -0.370029   
O276     O      0.521970000000     0.128170000000     0.003920000000    -0.368948   
O277     O      0.915610000000     0.149320000000     0.395490000000    -0.374404   
O278     O      0.888460000000     0.118370000000     0.427790000000    -0.373025   
O279     O      0.953030000000     0.204470000000     0.413070000000    -0.528857   
O280     O      0.957470000000     0.129730000000     0.354450000000    -0.348838   
O281     O      0.955320000000     0.213080000000     0.013610000000    -0.343823   
O282     O      0.953670000000     0.144050000000     0.077800000000    -0.528323   
O283     O      0.977560000000     0.140510000000     0.466490000000    -0.634989   
O284     O      0.932280000000     0.140280000000     0.465930000000    -0.498032   
O285     O      0.978460000000     0.078430000000     0.418340000000    -0.498412   
O286     O      0.932150000000     0.085890000000     0.020790000000    -0.632495   
O287     O      0.933080000000     0.077800000000     0.418260000000    -0.634566   
O288     O      0.977810000000     0.086540000000     0.020740000000    -0.494481   
O289     O      0.745470000000     0.410860000000     0.152580000000    -0.376641   
O290     O      0.772610000000     0.376940000000     0.182520000000    -0.373172   
O291     O      0.665140000000     0.414030000000     0.281100000000    -0.372323   
O292     O      0.638350000000     0.377970000000     0.252510000000    -0.373062   
O293     O      0.745400000000     0.415890000000     0.280710000000    -0.376339   
O294     O      0.772540000000     0.379660000000     0.252890000000    -0.368447   
O295     O      0.665930000000     0.398510000000     0.142950000000    -0.373702   
O296     O      0.638860000000     0.368810000000     0.176270000000    -0.372834   
O297     O      0.701320000000     0.456870000000     0.161680000000    -0.351634   
O298     O      0.710030000000     0.382480000000     0.104120000000    -0.526507   
O299     O      0.704500000000     0.464250000000     0.258900000000    -0.526624   
O300     O      0.705450000000     0.400090000000     0.326910000000    -0.342443   
O301     O      0.728200000000     0.392120000000     0.215230000000    -0.497286   
O302     O      0.682670000000     0.392110000000     0.214720000000    -0.632414   
O303     O      0.666250000000     0.253690000000     0.154720000000    -0.373912   
O304     O      0.639110000000     0.288620000000     0.183820000000    -0.369485   
O305     O      0.745530000000     0.266390000000     0.291930000000    -0.377197   
O306     O      0.772690000000     0.297760000000     0.259990000000    -0.372936   
O307     O      0.665950000000     0.259870000000     0.286960000000    -0.380526   
O308     O      0.638820000000     0.292360000000     0.255770000000    -0.372806   
O309     O      0.746470000000     0.252260000000     0.157740000000    -0.373668   
O310     O      0.773290000000     0.289550000000     0.185010000000    -0.372469   
O311     O      0.705440000000     0.204080000000     0.174620000000    -0.523047   
O312     O      0.707560000000     0.272020000000     0.109500000000    -0.351534   
O313     O      0.708200000000     0.211240000000     0.276120000000    -0.34079    
O314     O      0.703280000000     0.287700000000     0.332780000000    -0.529356   
O315     O      0.683550000000     0.275900000000     0.221420000000    -0.634497   
O316     O      0.728790000000     0.276050000000     0.222000000000    -0.493357   
O317     O      0.683310000000     0.329950000000     0.167260000000    -0.498286   
O318     O      0.728070000000     0.338470000000     0.269720000000    -0.634555   
O319     O      0.728930000000     0.330540000000     0.167200000000    -0.632948   
O320     O      0.682680000000     0.337950000000     0.269670000000    -0.497545   
Zr49     Zr     0.955890000000     0.021010000000     0.422700000000     1.37321    
Zr50     Zr     0.955390000000     0.029140000000     0.023350000000     1.37468    
Zr51     Zr     0.955360000000     0.135360000000     0.415860000000     1.37649    
Zr52     Zr     0.954750000000     0.143190000000     0.016760000000     1.37469    
Zr53     Zr     0.910600000000     0.081890000000     0.469080000000     1.37746    
Zr54     Zr     0.500110000000     0.082890000000     0.469810000000     1.37806    
Zr55     Zr     0.705750000000     0.387340000000     0.164740000000     1.37598    
Zr56     Zr     0.705280000000     0.395350000000     0.265360000000     1.37364    
Zr57     Zr     0.706320000000     0.273250000000     0.171150000000     1.37374    
Zr58     Zr     0.705730000000     0.280980000000     0.272100000000     1.37643    
Zr59     Zr     0.750520000000     0.334420000000     0.218870000000     1.37797    
Zr60     Zr     0.661040000000     0.333550000000     0.218190000000     1.37787    
C641     C      0.894240000000     0.008960000000     0.914860000000     0.386342   
C642     C      0.516710000000     0.026750000000     0.537400000000     0.393007   
C643     C      0.894140000000     0.013250000000     0.526960000000     0.394302   
C644     C      0.517480000000     0.011280000000     0.914720000000     0.389946   
C645     C      0.516680000000     0.148550000000     0.909160000000     0.391552   
C646     C      0.893160000000     0.154870000000     0.522790000000     0.38937    
C647     C      0.516370000000     0.154690000000     0.525200000000     0.387926   
C648     C      0.894120000000     0.140440000000     0.902900000000     0.390356   
C649     C      0.766960000000     0.403330000000     0.661170000000     0.393846   
C650     C      0.643700000000     0.404790000000     0.773680000000     0.389435   
C651     C      0.766970000000     0.406810000000     0.773560000000     0.3881     
C652     C      0.644450000000     0.389730000000     0.650620000000     0.394121   
C653     C      0.644690000000     0.262290000000     0.662350000000     0.38726    
C654     C      0.767030000000     0.275370000000     0.784640000000     0.392619   
C655     C      0.644450000000     0.267190000000     0.778280000000     0.389728   
C656     C      0.767930000000     0.261760000000     0.664840000000     0.390837   
C657     C      0.548340000000     0.217630000000     0.586550000000     0.0122212  
C658     C      0.560870000000     0.250200000000     0.637930000000    -0.0437755  
C659     C      0.602310000000     0.246660000000     0.659920000000    -0.0250909  
C660     C      0.584060000000     0.237030000000     0.633460000000     0.0120477  
C661     C      0.632180000000     0.208600000000     0.625620000000    -0.0255323  
C662     C      0.612710000000     0.200000000000     0.600610000000     0.012538   
C663     C      0.543300000000     0.240910000000     0.614630000000    -0.0435752  
C664     C      0.589520000000     0.213600000000     0.605470000000    -0.00644481 
C665     C      0.617710000000     0.176500000000     0.572660000000    -0.0436619  
C666     C      0.600140000000     0.167170000000     0.549380000000    -0.0435296  
C667     C      0.558710000000     0.170810000000     0.527330000000    -0.0249588  
C668     C      0.576950000000     0.180410000000     0.553800000000     0.0120978  
C669     C      0.528780000000     0.208490000000     0.561840000000    -0.0248127  
C670     C      0.571510000000     0.203890000000     0.581770000000    -0.006187   
C671     C      0.583980000000     0.236170000000     0.803710000000     0.0121227  
C672     C      0.542700000000     0.235540000000     0.820080000000    -0.0433946  
C673     C      0.528240000000     0.202240000000     0.872280000000    -0.024725   
C674     C      0.547920000000     0.212720000000     0.848370000000     0.0125641  
C675     C      0.558520000000     0.167040000000     0.908290000000    -0.0243863  
C676     C      0.577060000000     0.179020000000     0.883090000000     0.0124552  
C677     C      0.560460000000     0.246830000000     0.797860000000    -0.0431052  
C678     C      0.571430000000     0.201760000000     0.854710000000    -0.00599053 
C679     C      0.600580000000     0.168550000000     0.889060000000    -0.0432274  
C680     C      0.618360000000     0.179800000000     0.866820000000    -0.0437474  
C681     C      0.632770000000     0.212940000000     0.814500000000    -0.0251352  
C682     C      0.613130000000     0.202560000000     0.838490000000     0.0126985  
C683     C      0.602590000000     0.248870000000     0.778900000000    -0.0238779  
C684     C      0.589620000000     0.213500000000     0.832140000000    -0.00604833 
C685     C      0.548290000000     0.466350000000     0.600410000000     0.0120514  
C686     C      0.560760000000     0.411570000000     0.634040000000    -0.0436055  
C687     C      0.602460000000     0.387670000000     0.634390000000    -0.02501    
C688     C      0.584050000000     0.415950000000     0.622740000000     0.012439   
C689     C      0.632320000000     0.423110000000     0.598300000000    -0.0247057  
C690     C      0.612870000000     0.450200000000     0.587860000000     0.0123897  
C691     C      0.543140000000     0.436680000000     0.623260000000    -0.0436602  
C692     C      0.589580000000     0.445490000000     0.599660000000    -0.00632586 
C693     C      0.617980000000     0.479680000000     0.564780000000    -0.0433848  
C694     C      0.600360000000     0.004770000000     0.553980000000    -0.0439839  
C695     C      0.558680000000     0.028810000000     0.553780000000    -0.025043   
C696     C      0.577070000000     0.000460000000     0.565370000000     0.0119095  
C697     C      0.528750000000     0.493050000000     0.589550000000    -0.0246649  
C698     C      0.571560000000     0.470970000000     0.588480000000    -0.00641852 
C699     C      0.799150000000     0.197080000000     0.604450000000     0.0122682  
C700     C      0.810250000000     0.162830000000     0.553210000000    -0.043168   
C701     C      0.850450000000     0.168440000000     0.526990000000    -0.025342   
C702     C      0.833120000000     0.178110000000     0.554770000000     0.012315   
C703     C      0.880360000000     0.210920000000     0.556560000000    -0.024722   
C704     C      0.861940000000     0.219270000000     0.583180000000     0.0114753  
C705     C      0.793560000000     0.171920000000     0.577880000000    -0.0431614  
C706     C      0.839080000000     0.203500000000     0.581230000000    -0.00616594 
C707     C      0.867470000000     0.244660000000     0.609610000000    -0.0434675  
C708     C      0.850780000000     0.253770000000     0.634270000000    -0.0434758  
C709     C      0.810630000000     0.247990000000     0.660590000000    -0.025266   
C710     C      0.827920000000     0.238410000000     0.632760000000     0.0126893  
C711     C      0.780590000000     0.205950000000     0.630740000000    -0.0245599  
C712     C      0.821970000000     0.212990000000     0.606320000000    -0.00625145 
C713     C      0.798780000000     0.468450000000     0.835940000000     0.0117434  
C714     C      0.810800000000     0.499700000000     0.888210000000    -0.0436875  
C715     C      0.851720000000     0.493810000000     0.911930000000    -0.024982   
C716     C      0.833830000000     0.485430000000     0.884620000000     0.0114942  
C717     C      0.881550000000     0.454800000000     0.878600000000    -0.0255786  
C718     C      0.862460000000     0.447400000000     0.852640000000     0.0117255  
C719     C      0.793570000000     0.491590000000     0.864040000000    -0.0436293  
C720     C      0.839430000000     0.462090000000     0.856620000000    -0.00659952 
C721     C      0.867620000000     0.424000000000     0.824670000000    -0.0440405  
C722     C      0.850370000000     0.415860000000     0.800520000000    -0.0437508  
C723     C      0.809490000000     0.421920000000     0.776700000000    -0.0248205  
C724     C      0.827370000000     0.430210000000     0.804050000000     0.0113885  
C725     C      0.779580000000     0.460570000000     0.810270000000    -0.0250879  
C726     C      0.821770000000     0.453600000000     0.832030000000    -0.00643923 
C727     C      0.833780000000     0.165910000000     0.872990000000     0.012542   
C728     C      0.792680000000     0.185410000000     0.871250000000    -0.0434915  
C729     C      0.778560000000     0.240990000000     0.836490000000    -0.0251997  
C730     C      0.798020000000     0.214660000000     0.848080000000     0.0133518  
C731     C      0.808860000000     0.276730000000     0.801120000000    -0.0249962  
C732     C      0.827260000000     0.249280000000     0.814230000000     0.0129594  
C733     C      0.810290000000     0.161120000000     0.883320000000    -0.0431906  
C734     C      0.821510000000     0.219960000000     0.837410000000    -0.0061724  
C735     C      0.850760000000     0.254240000000     0.804080000000    -0.0433206  
C736     C      0.868390000000     0.229950000000     0.816130000000    -0.0437639  
C737     C      0.882480000000     0.174220000000     0.850770000000    -0.025588   
C738     C      0.863030000000     0.200640000000     0.839260000000     0.0130793  
C739     C      0.852250000000     0.138940000000     0.886630000000    -0.0247343  
C740     C      0.839540000000     0.195310000000     0.849900000000    -0.00623662 
C741     C      0.548950000000     0.447430000000     0.853810000000     0.0118279  
C742     C      0.560480000000     0.413660000000     0.802550000000    -0.0435333  
C743     C      0.601080000000     0.418580000000     0.777680000000    -0.0254703  
C744     C      0.583470000000     0.428270000000     0.805040000000     0.0136888  
C745     C      0.631020000000     0.459690000000     0.808810000000    -0.0261669  
C746     C      0.612260000000     0.468150000000     0.834880000000     0.0140057  
C747     C      0.543500000000     0.422830000000     0.826780000000    -0.0431068  
C748     C      0.589280000000     0.453070000000     0.831990000000    -0.00652445 
C749     C      0.617660000000     0.492970000000     0.861770000000    -0.0434654  
C750     C      0.600680000000     0.002200000000     0.885980000000    -0.0443617  
C751     C      0.560100000000     0.497180000000     0.910910000000    -0.0252464  
C752     C      0.577700000000     0.487520000000     0.883530000000     0.0130369  
C753     C      0.530070000000     0.456380000000     0.879580000000    -0.0238404  
C754     C      0.571890000000     0.462660000000     0.856620000000    -0.00547632 
C755     C      0.862790000000     0.449710000000     0.587500000000     0.0111613  
C756     C      0.850490000000     0.418960000000     0.639770000000    -0.043586   
C757     C      0.808900000000     0.422140000000     0.661110000000    -0.0244228  
C758     C      0.827210000000     0.431390000000     0.634730000000     0.0122669  
C759     C      0.778980000000     0.458350000000     0.625760000000    -0.0250242  
C760     C      0.798330000000     0.466560000000     0.600600000000     0.0122772  
C761     C      0.868010000000     0.427710000000     0.616290000000    -0.0432096  
C762     C      0.821610000000     0.453640000000     0.606020000000    -0.00656315 
C763     C      0.793140000000     0.488830000000     0.571960000000    -0.0440535  
C764     C      0.810670000000     0.497600000000     0.548480000000    -0.0431613  
C765     C      0.852240000000     0.494220000000     0.527040000000    -0.0240077  
C766     C      0.833930000000     0.485070000000     0.553460000000     0.0117042  
C767     C      0.882230000000     0.458470000000     0.562650000000    -0.023588   
C768     C      0.839530000000     0.462770000000     0.582150000000    -0.0058053  
H641     H      0.988930000000     0.002460000000     0.975050000000     0.194065   
H642     H      0.921620000000     0.087100000000     0.540010000000     0.191957   
H643     H      0.987570000000     0.162940000000     0.965440000000     0.195651   
H644     H      0.923060000000     0.075760000000     0.898540000000     0.19747    
H645     H      0.936720000000     0.048310000000     0.588520000000     0.131247   
H646     H      0.959420000000     0.122190000000     0.590470000000     0.197358   
H647     H      0.961610000000     0.218820000000     0.990750000000     0.127752   
H648     H      0.942440000000     0.218200000000     0.927980000000     0.195704   
H649     H      0.968060000000     0.107540000000     0.850420000000     0.138675   
H650     H      0.947510000000     0.036650000000     0.848620000000     0.189181   
H651     H      0.946290000000     0.446110000000     0.948460000000     0.137886   
H652     H      0.968410000000     0.446490000000     0.510080000000     0.18828    
H653     H      0.962510000000     0.218430000000     0.896840000000     0.199959   
H654     H      0.962980000000     0.495680000000     0.850420000000     0.201848   
H655     H      0.952280000000     0.446490000000     0.545620000000     0.200743   
H656     H      0.947550000000     0.166280000000     0.589580000000     0.201164   
H657     H      0.672220000000     0.413980000000     0.713050000000     0.194545   
H658     H      0.738120000000     0.340350000000     0.789420000000     0.195921   
H659     H      0.673520000000     0.253460000000     0.722310000000     0.191007   
H660     H      0.739410000000     0.329450000000     0.647910000000     0.194832   
H661     H      0.712630000000     0.375680000000     0.834700000000     0.128656   
H662     H      0.692210000000     0.305670000000     0.842620000000     0.197402   
H663     H      0.697080000000     0.201670000000     0.758710000000     0.126723   
H664     H      0.696370000000     0.191630000000     0.692200000000     0.185782   
H665     H      0.697020000000     0.293270000000     0.602430000000     0.138966   
H666     H      0.719920000000     0.362670000000     0.594430000000     0.189157   
H667     H      0.711340000000     0.466790000000     0.680290000000     0.137235   
H668     H      0.693300000000     0.476020000000     0.743610000000     0.189151   
H669     H      0.713870000000     0.188790000000     0.658130000000     0.201745   
H670     H      0.701990000000     0.400530000000     0.589500000000     0.201268   
H671     H      0.715180000000     0.480150000000     0.771880000000     0.201512   
H672     H      0.713220000000     0.272210000000     0.847290000000     0.199948   
H673     H      0.648650000000     0.213900000000     0.610970000000     0.0481843  
H674     H      0.525650000000     0.234150000000     0.545660000000     0.0397029  
H675     H      0.599660000000     0.227650000000     0.682230000000     0.0381725  
H676     H      0.561950000000     0.140690000000     0.518970000000     0.0489805  
H677     H      0.525590000000     0.251820000000     0.618620000000     0.0364972  
H678     H      0.556350000000     0.267860000000     0.659600000000     0.035593   
H679     H      0.599140000000     0.276870000000     0.668080000000     0.0488244  
H680     H      0.512300000000     0.203430000000     0.576550000000     0.0479129  
H681     H      0.635400000000     0.165450000000     0.568750000000     0.0368693  
H682     H      0.635010000000     0.182910000000     0.641890000000     0.0375864  
H683     H      0.604650000000     0.149410000000     0.527760000000     0.0357529  
H684     H      0.561270000000     0.190010000000     0.505120000000     0.0384855  
H685     H      0.559820000000     0.185850000000     0.931000000000     0.038651   
H686     H      0.598460000000     0.278900000000     0.771110000000     0.0487345  
H687     H      0.512410000000     0.195260000000     0.856720000000     0.0459882  
H688     H      0.636760000000     0.187670000000     0.798220000000     0.0376084  
H689     H      0.555860000000     0.264170000000     0.776020000000     0.0359179  
H690     H      0.524710000000     0.244610000000     0.815130000000     0.0360764  
H691     H      0.524010000000     0.227620000000     0.888300000000     0.0356953  
H692     H      0.601250000000     0.230690000000     0.755800000000     0.0381064  
H693     H      0.605200000000     0.151380000000     0.910990000000     0.0360543  
H694     H      0.562540000000     0.137010000000     0.916190000000     0.0491498  
H695     H      0.636340000000     0.170800000000     0.871810000000     0.0368115  
H696     H      0.648720000000     0.219470000000     0.829960000000     0.0478534  
H697     H      0.648790000000     0.440260000000     0.601230000000     0.0463821  
H698     H      0.525580000000     0.014280000000     0.610120000000     0.0428635  
H699     H      0.600570000000     0.360630000000     0.619600000000     0.0428617  
H700     H      0.562310000000     0.035670000000     0.526730000000     0.0489245  
H701     H      0.525330000000     0.432840000000     0.632720000000     0.0367799  
H702     H      0.556190000000     0.388640000000     0.651430000000     0.0361082  
H703     H      0.598860000000     0.380990000000     0.661480000000     0.0489914  
H704     H      0.512290000000     0.475860000000     0.586770000000     0.0480427  
H705     H      0.635770000000     0.483400000000     0.555210000000     0.0363282  
H706     H      0.635190000000     0.401730000000     0.577770000000     0.039209   
H707     H      0.604910000000     0.027620000000     0.536500000000     0.0363212  
H708     H      0.560530000000     0.055750000000     0.568710000000     0.0434318  
H709     H      0.897720000000     0.208510000000     0.569600000000     0.0455279  
H710     H      0.779340000000     0.181180000000     0.648450000000     0.0393506  
H711     H      0.846310000000     0.186180000000     0.504330000000     0.0423332  
H712     H      0.813280000000     0.278670000000     0.667630000000     0.0489205  
H713     H      0.776100000000     0.159340000000     0.576150000000     0.0364188  
H714     H      0.805300000000     0.143640000000     0.532770000000     0.0365062  
H715     H      0.847850000000     0.137690000000     0.520150000000     0.048657   
H716     H      0.763250000000     0.208240000000     0.617630000000     0.0462942  
H717     H      0.884910000000     0.257370000000     0.611240000000     0.0360601  
H718     H      0.881250000000     0.235610000000     0.538730000000     0.0421824  
H719     H      0.855720000000     0.273040000000     0.654650000000     0.0364226  
H720     H      0.814710000000     0.230050000000     0.683160000000     0.0426151  
H721     H      0.898460000000     0.459080000000     0.864770000000     0.0465514  
H722     H      0.777390000000     0.486460000000     0.794050000000     0.0381859  
H723     H      0.848460000000     0.474310000000     0.933760000000     0.0398144  
H724     H      0.812450000000     0.391920000000     0.767880000000     0.0483463  
H725     H      0.776000000000     0.003340000000     0.867380000000     0.0362456  
H726     H      0.806150000000     0.017280000000     0.909870000000     0.0352429  
H727     H      0.848770000000     0.023860000000     0.920650000000     0.0480607  
H728     H      0.762670000000     0.456420000000     0.824150000000     0.0454442  
H729     H      0.885160000000     0.412120000000     0.821430000000     0.0362947  
H730     H      0.883410000000     0.428980000000     0.894980000000     0.0411527  
H731     H      0.855020000000     0.398160000000     0.778920000000     0.0354365  
H732     H      0.812760000000     0.441520000000     0.754940000000     0.0396947  
H733     H      0.812830000000     0.282330000000     0.773930000000     0.0493925  
H734     H      0.850730000000     0.110990000000     0.873130000000     0.0411778  
H735     H      0.774880000000     0.262320000000     0.856800000000     0.0360625  
H736     H      0.898690000000     0.191850000000     0.854240000000     0.0495125  
H737     H      0.805610000000     0.138520000000     0.900980000000     0.0362141  
H738     H      0.774720000000     0.181330000000     0.880010000000     0.0365449  
H739     H      0.762440000000     0.223220000000     0.832720000000     0.047944   
H740     H      0.848180000000     0.133380000000     0.913790000000     0.0487342  
H741     H      0.855470000000     0.276970000000     0.786550000000     0.0361634  
H742     H      0.810350000000     0.304350000000     0.815140000000     0.0408996  
H743     H      0.886360000000     0.234090000000     0.807440000000     0.037165   
H744     H      0.885960000000     0.152690000000     0.830550000000     0.0412849  
H745     H      0.648090000000     0.456250000000     0.822460000000     0.0511242  
H746     H      0.528210000000     0.431300000000     0.896830000000     0.0400027  
H747     H      0.597390000000     0.436690000000     0.755080000000     0.0403453  
H748     H      0.562880000000     0.027750000000     0.918220000000     0.0493646  
H749     H      0.525950000000     0.410780000000     0.824340000000     0.0358558  
H750     H      0.555650000000     0.394940000000     0.781730000000     0.0365332  
H751     H      0.598330000000     0.387960000000     0.770500000000     0.0497809  
H752     H      0.513000000000     0.459570000000     0.865900000000     0.0449579  
H753     H      0.635190000000     0.005150000000     0.864120000000     0.0368956  
H754     H      0.632600000000     0.484750000000     0.791480000000     0.0379861  
H755     H      0.605480000000     0.021030000000     0.906740000000     0.0370106  
H756     H      0.563720000000     0.478950000000     0.933450000000     0.0405391  
H757     H      0.762430000000     0.453100000000     0.611270000000     0.0471137  
H758     H      0.885250000000     0.432680000000     0.546570000000     0.0384338  
H759     H      0.810840000000     0.442430000000     0.682690000000     0.0399375  
H760     H      0.848570000000     0.023660000000     0.517340000000     0.0482361  
H761     H      0.885810000000     0.417390000000     0.620670000000     0.0356117  
H762     H      0.855100000000     0.402250000000     0.662000000000     0.0358496  
H763     H      0.812520000000     0.392600000000     0.670620000000     0.0488546  
H764     H      0.898770000000     0.463580000000     0.577200000000     0.043205   
H765     H      0.775380000000     0.499310000000     0.567660000000     0.0365272  
H766     H      0.776290000000     0.484120000000     0.641970000000     0.0402052  
H767     H      0.806070000000     0.014410000000     0.526310000000     0.0352636  
H768     H      0.850340000000     0.473740000000     0.505580000000     0.0399124  
N81      N      0.534330000000     0.175270000000     0.540020000000    -0.162306   
N82      N      0.626710000000     0.241940000000     0.647350000000    -0.162752   
N83      N      0.626710000000     0.245990000000     0.792760000000    -0.163839   
N84      N      0.534390000000     0.169530000000     0.894370000000    -0.163997   
N85      N      0.534510000000     0.013740000000     0.558020000000    -0.163253   
N86      N      0.626630000000     0.402690000000     0.630010000000    -0.163266   
N87      N      0.785950000000     0.241080000000     0.650250000000    -0.162377   
N88      N      0.875110000000     0.175570000000     0.537280000000    -0.16279    
N89      N      0.784960000000     0.427160000000     0.788570000000    -0.162954   
N90      N      0.876240000000     0.488460000000     0.900040000000    -0.162558   
N91      N      0.876420000000     0.153970000000     0.882430000000    -0.163264   
N92      N      0.784700000000     0.261570000000     0.805020000000    -0.163463   
N93      N      0.535510000000     0.490940000000     0.899840000000    -0.16284    
N94      N      0.625660000000     0.425010000000     0.788680000000    -0.162128   
N95      N      0.876410000000     0.491480000000     0.540760000000    -0.164561   
N96      N      0.784720000000     0.425110000000     0.647440000000    -0.163864   
O321     O      0.915810000000     0.499780000000     0.907830000000    -0.373024   
O322     O      0.888660000000     0.036420000000     0.935220000000    -0.368167   
O323     O      0.995230000000     0.017910000000     0.545010000000    -0.36927    
O324     O      0.522310000000     0.047780000000     0.511840000000    -0.372524   
O325     O      0.915620000000     0.005870000000     0.535630000000    -0.381865   
O326     O      0.888470000000     0.039480000000     0.505460000000    -0.373754   
O327     O      0.996030000000     0.001990000000     0.907340000000    -0.374357   
O328     O      0.522830000000     0.038260000000     0.935730000000    -0.373112   
O329     O      0.956690000000     0.451380000000     0.928840000000    -0.351569   
O330     O      0.955440000000     0.017060000000     0.861730000000    -0.526082   
O331     O      0.959460000000     0.460280000000     0.527030000000    -0.525284   
O332     O      0.951770000000     0.034490000000     0.584680000000    -0.34899    
O333     O      0.932990000000     0.024270000000     0.972820000000    -0.498413   
O334     O      0.978470000000     0.024320000000     0.973350000000    -0.631789   
O335     O      0.995180000000     0.155700000000     0.900410000000    -0.381982   
O336     O      0.522310000000     0.123770000000     0.932000000000    -0.373203   
O337     O      0.914610000000     0.164520000000     0.529770000000    -0.373844   
O338     O      0.887820000000     0.126860000000     0.502820000000    -0.372943   
O339     O      0.994800000000     0.163270000000     0.532800000000    -0.370121   
O340     O      0.521970000000     0.128170000000     0.503920000000    -0.369055   
O341     O      0.915610000000     0.149320000000     0.895490000000    -0.374409   
O342     O      0.888460000000     0.118370000000     0.927790000000    -0.373022   
O343     O      0.953030000000     0.204470000000     0.913070000000    -0.528845   
O344     O      0.957470000000     0.129730000000     0.854450000000    -0.348838   
O345     O      0.955320000000     0.213080000000     0.513610000000    -0.343892   
O346     O      0.953670000000     0.144050000000     0.577790000000    -0.528113   
O347     O      0.977560000000     0.140510000000     0.966490000000    -0.634881   
O348     O      0.932280000000     0.140280000000     0.965930000000    -0.498112   
O349     O      0.978460000000     0.078430000000     0.918340000000    -0.498338   
O350     O      0.932150000000     0.085890000000     0.520790000000    -0.63248    
O351     O      0.933080000000     0.077800000000     0.918260000000    -0.634557   
O352     O      0.977810000000     0.086540000000     0.520740000000    -0.494599   
O353     O      0.745470000000     0.410860000000     0.652580000000    -0.376656   
O354     O      0.772610000000     0.376940000000     0.682520000000    -0.373178   
O355     O      0.665140000000     0.414030000000     0.781100000000    -0.372314   
O356     O      0.638350000000     0.377970000000     0.752510000000    -0.373062   
O357     O      0.745400000000     0.415890000000     0.780710000000    -0.376346   
O358     O      0.772540000000     0.379660000000     0.752890000000    -0.368448   
O359     O      0.665930000000     0.398510000000     0.642960000000    -0.373747   
O360     O      0.638860000000     0.368810000000     0.676270000000    -0.372816   
O361     O      0.701320000000     0.456870000000     0.661680000000    -0.35163    
O362     O      0.710030000000     0.382480000000     0.604130000000    -0.526159   
O363     O      0.704500000000     0.464250000000     0.758900000000    -0.526638   
O364     O      0.705450000000     0.400090000000     0.826910000000    -0.342384   
O365     O      0.728190000000     0.392120000000     0.715230000000    -0.497407   
O366     O      0.682680000000     0.392110000000     0.714720000000    -0.63233    
O367     O      0.666250000000     0.253690000000     0.654720000000    -0.373908   
O368     O      0.639110000000     0.288620000000     0.683820000000    -0.369476   
O369     O      0.745530000000     0.266390000000     0.791930000000    -0.377041   
O370     O      0.772690000000     0.297760000000     0.759990000000    -0.372924   
O371     O      0.665950000000     0.259870000000     0.786950000000    -0.380582   
O372     O      0.638820000000     0.292360000000     0.755770000000    -0.37281    
O373     O      0.746470000000     0.252260000000     0.657750000000    -0.3737     
O374     O      0.773300000000     0.289550000000     0.685010000000    -0.372365   
O375     O      0.705440000000     0.204080000000     0.674620000000    -0.52304    
O376     O      0.707560000000     0.272020000000     0.609500000000    -0.351544   
O377     O      0.708200000000     0.211240000000     0.776120000000    -0.340797   
O378     O      0.703280000000     0.287700000000     0.832780000000    -0.529414   
O379     O      0.683550000000     0.275900000000     0.721420000000    -0.6343     
O380     O      0.728790000000     0.276050000000     0.722000000000    -0.493354   
O381     O      0.683310000000     0.329950000000     0.667260000000    -0.498293   
O382     O      0.728070000000     0.338470000000     0.769720000000    -0.634546   
O383     O      0.728930000000     0.330540000000     0.667190000000    -0.633076   
O384     O      0.682680000000     0.337950000000     0.769670000000    -0.497538   
Zr61     Zr     0.955890000000     0.021010000000     0.922700000000     1.37326    
Zr62     Zr     0.955390000000     0.029140000000     0.523340000000     1.37461    
Zr63     Zr     0.955360000000     0.135360000000     0.915860000000     1.3765     
Zr64     Zr     0.954760000000     0.143190000000     0.516760000000     1.3746     
Zr65     Zr     0.910600000000     0.081890000000     0.969080000000     1.37724    
Zr66     Zr     0.500100000000     0.082890000000     0.969810000000     1.37793    
Zr67     Zr     0.705750000000     0.387340000000     0.664740000000     1.37623    
Zr68     Zr     0.705280000000     0.395350000000     0.765350000000     1.37381    
Zr69     Zr     0.706320000000     0.273250000000     0.671150000000     1.37375    
Zr70     Zr     0.705730000000     0.280980000000     0.772100000000     1.37644    
Zr71     Zr     0.750520000000     0.334420000000     0.718870000000     1.37779    
Zr72     Zr     0.661040000000     0.333550000000     0.718190000000     1.37776    
C769     C      0.894240000000     0.508970000000     0.414860000000     0.387304   
C770     C      0.516710000000     0.526750000000     0.037410000000     0.393004   
C771     C      0.894140000000     0.513260000000     0.026960000000     0.394858   
C772     C      0.517480000000     0.511280000000     0.414720000000     0.39038    
C773     C      0.516680000000     0.648550000000     0.409160000000     0.391712   
C774     C      0.893160000000     0.654860000000     0.022780000000     0.38951    
C775     C      0.516380000000     0.654690000000     0.025200000000     0.387863   
C776     C      0.894120000000     0.640430000000     0.402900000000     0.390771   
C777     C      0.766960000000     0.903330000000     0.161170000000     0.39394    
C778     C      0.643700000000     0.904790000000     0.273680000000     0.389394   
C779     C      0.766970000000     0.906820000000     0.273560000000     0.388037   
C780     C      0.644450000000     0.889730000000     0.150620000000     0.3942     
C781     C      0.644690000000     0.762290000000     0.162350000000     0.387261   
C782     C      0.767020000000     0.775370000000     0.284640000000     0.392718   
C783     C      0.644450000000     0.767190000000     0.278280000000     0.389517   
C784     C      0.767930000000     0.761760000000     0.164840000000     0.390905   
C785     C      0.548340000000     0.717630000000     0.086550000000     0.0122209  
C786     C      0.560870000000     0.750200000000     0.137930000000    -0.0437641  
C787     C      0.602310000000     0.746670000000     0.159920000000    -0.0250699  
C788     C      0.584070000000     0.737030000000     0.133460000000     0.0120522  
C789     C      0.632180000000     0.708600000000     0.125620000000    -0.0255573  
C790     C      0.612710000000     0.700010000000     0.100610000000     0.0125965  
C791     C      0.543300000000     0.740910000000     0.114630000000    -0.0435697  
C792     C      0.589520000000     0.713610000000     0.105470000000    -0.00645956 
C793     C      0.617720000000     0.676500000000     0.072660000000    -0.0437416  
C794     C      0.600140000000     0.667170000000     0.049380000000    -0.0435034  
C795     C      0.558710000000     0.670800000000     0.027340000000    -0.0249468  
C796     C      0.576950000000     0.680410000000     0.053800000000     0.0120979  
C797     C      0.528780000000     0.708490000000     0.061840000000    -0.0247937  
C798     C      0.571510000000     0.703890000000     0.081770000000    -0.00616843 
C799     C      0.583980000000     0.736170000000     0.303710000000     0.0122236  
C800     C      0.542700000000     0.735540000000     0.320080000000    -0.0433568  
C801     C      0.528240000000     0.702240000000     0.372280000000    -0.0247145  
C802     C      0.547920000000     0.712730000000     0.348370000000     0.0125583  
C803     C      0.558530000000     0.667040000000     0.408290000000    -0.0244649  
C804     C      0.577050000000     0.679020000000     0.383100000000     0.0124902  
C805     C      0.560460000000     0.746830000000     0.297860000000    -0.0431767  
C806     C      0.571430000000     0.701770000000     0.354720000000    -0.00597446 
C807     C      0.600580000000     0.668550000000     0.389050000000    -0.0431904  
C808     C      0.618360000000     0.679800000000     0.366830000000    -0.0436754  
C809     C      0.632770000000     0.712940000000     0.314500000000    -0.0251482  
C810     C      0.613130000000     0.702560000000     0.338490000000     0.0127001  
C811     C      0.602580000000     0.748870000000     0.278900000000    -0.0240612  
C812     C      0.589620000000     0.713500000000     0.332140000000    -0.00606999 
C813     C      0.548290000000     0.966350000000     0.100420000000     0.0117102  
C814     C      0.560760000000     0.911570000000     0.134040000000    -0.0436897  
C815     C      0.602460000000     0.887670000000     0.134390000000    -0.0250978  
C816     C      0.584050000000     0.915950000000     0.122730000000     0.0125601  
C817     C      0.632320000000     0.923110000000     0.098300000000    -0.0246981  
C818     C      0.612880000000     0.950200000000     0.087860000000     0.0123619  
C819     C      0.543140000000     0.936680000000     0.123260000000    -0.0434244  
C820     C      0.589580000000     0.945490000000     0.099670000000    -0.00645176 
C821     C      0.617980000000     0.979680000000     0.064780000000    -0.0428576  
C822     C      0.600360000000     0.504770000000     0.053980000000    -0.04353    
C823     C      0.558680000000     0.528810000000     0.053780000000    -0.025161   
C824     C      0.577080000000     0.500460000000     0.065370000000     0.0124454  
C825     C      0.528750000000     0.993050000000     0.089550000000    -0.0236763  
C826     C      0.571560000000     0.970970000000     0.088480000000    -0.00575269 
C827     C      0.799160000000     0.697080000000     0.104450000000     0.0122916  
C828     C      0.810250000000     0.662830000000     0.053210000000    -0.0431514  
C829     C      0.850450000000     0.668440000000     0.026990000000    -0.0253308  
C830     C      0.833120000000     0.678100000000     0.054770000000     0.0123359  
C831     C      0.880360000000     0.710920000000     0.056560000000    -0.0246907  
C832     C      0.861940000000     0.719270000000     0.083180000000     0.0115085  
C833     C      0.793560000000     0.671920000000     0.077880000000    -0.0431426  
C834     C      0.839080000000     0.703490000000     0.081230000000    -0.00616619 
C835     C      0.867480000000     0.744660000000     0.109610000000    -0.0435437  
C836     C      0.850780000000     0.753770000000     0.134270000000    -0.0434336  
C837     C      0.810630000000     0.747980000000     0.160590000000    -0.0252488  
C838     C      0.827920000000     0.738410000000     0.132760000000     0.0126754  
C839     C      0.780590000000     0.705950000000     0.130740000000    -0.0245633  
C840     C      0.821970000000     0.712980000000     0.106330000000    -0.00624508 
C841     C      0.798780000000     0.968440000000     0.335940000000     0.011675   
C842     C      0.810800000000     0.999700000000     0.388210000000    -0.0431638  
C843     C      0.851720000000     0.993810000000     0.411930000000    -0.024379   
C844     C      0.833830000000     0.985430000000     0.384620000000     0.011286   
C845     C      0.881550000000     0.954800000000     0.378600000000    -0.0255552  
C846     C      0.862460000000     0.947390000000     0.352640000000     0.0117116  
C847     C      0.793570000000     0.991590000000     0.364040000000    -0.0432075  
C848     C      0.839430000000     0.962090000000     0.356620000000    -0.0064913  
C849     C      0.867620000000     0.924000000000     0.324670000000    -0.043996   
C850     C      0.850370000000     0.915860000000     0.300520000000    -0.0437719  
C851     C      0.809490000000     0.921920000000     0.276700000000    -0.0248531  
C852     C      0.827370000000     0.930210000000     0.304060000000     0.0114347  
C853     C      0.779580000000     0.960570000000     0.310270000000    -0.0250181  
C854     C      0.821770000000     0.953600000000     0.332030000000    -0.00643703 
C855     C      0.833780000000     0.665910000000     0.372990000000     0.0125518  
C856     C      0.792680000000     0.685410000000     0.371250000000    -0.0434745  
C857     C      0.778560000000     0.741000000000     0.336490000000    -0.0251402  
C858     C      0.798020000000     0.714660000000     0.348080000000     0.013342   
C859     C      0.808860000000     0.776730000000     0.301120000000    -0.0249618  
C860     C      0.827260000000     0.749280000000     0.314230000000     0.0129519  
C861     C      0.810290000000     0.661120000000     0.383320000000    -0.0431582  
C862     C      0.821510000000     0.719960000000     0.337410000000    -0.00615804 
C863     C      0.850760000000     0.754240000000     0.304080000000    -0.0433142  
C864     C      0.868390000000     0.729950000000     0.316130000000    -0.0437524  
C865     C      0.882480000000     0.674210000000     0.350770000000    -0.0255365  
C866     C      0.863030000000     0.700650000000     0.339260000000     0.0130711  
C867     C      0.852250000000     0.638940000000     0.386630000000    -0.0246978  
C868     C      0.839540000000     0.695310000000     0.349900000000    -0.00622198 
C869     C      0.548950000000     0.947430000000     0.353810000000     0.011997   
C870     C      0.560480000000     0.913660000000     0.302550000000    -0.0434389  
C871     C      0.601080000000     0.918580000000     0.277680000000    -0.0254243  
C872     C      0.583470000000     0.928270000000     0.305050000000     0.0135575  
C873     C      0.631020000000     0.959690000000     0.308820000000    -0.0258844  
C874     C      0.612260000000     0.968150000000     0.334880000000     0.0133927  
C875     C      0.543510000000     0.922830000000     0.326780000000    -0.0431173  
C876     C      0.589280000000     0.953070000000     0.331990000000    -0.0060846  
C877     C      0.617660000000     0.992970000000     0.361770000000    -0.0417747  
C878     C      0.600680000000     0.502200000000     0.385980000000    -0.0426568  
C879     C      0.560100000000     0.997180000000     0.410910000000    -0.0250556  
C880     C      0.577700000000     0.987520000000     0.383530000000     0.0139888  
C881     C      0.530070000000     0.956380000000     0.379590000000    -0.0238826  
C882     C      0.571890000000     0.962660000000     0.356630000000    -0.00589984 
C883     C      0.862790000000     0.949710000000     0.087500000000     0.0111313  
C884     C      0.850490000000     0.918960000000     0.139770000000    -0.043629   
C885     C      0.808900000000     0.922140000000     0.161110000000    -0.0244463  
C886     C      0.827210000000     0.931390000000     0.134730000000     0.0123448  
C887     C      0.778980000000     0.958350000000     0.125760000000    -0.0250926  
C888     C      0.798330000000     0.966560000000     0.100600000000     0.012455   
C889     C      0.868010000000     0.927710000000     0.116290000000    -0.0431473  
C890     C      0.821610000000     0.953640000000     0.106020000000    -0.00667352 
C891     C      0.793140000000     0.988830000000     0.071960000000    -0.0443041  
C892     C      0.810670000000     0.997600000000     0.048480000000    -0.0423354  
C893     C      0.852240000000     0.994220000000     0.027040000000    -0.0233756  
C894     C      0.833930000000     0.985060000000     0.053460000000     0.0113741  
C895     C      0.882230000000     0.958470000000     0.062650000000    -0.023594   
C896     C      0.839530000000     0.962780000000     0.082150000000    -0.00560955 
H769     H      0.988940000000     0.502460000000     0.475050000000     0.194055   
H770     H      0.921620000000     0.587100000000     0.040010000000     0.191962   
H771     H      0.987570000000     0.662940000000     0.465440000000     0.195509   
H772     H      0.923060000000     0.575770000000     0.398540000000     0.197499   
H773     H      0.936720000000     0.548310000000     0.088510000000     0.131296   
H774     H      0.959420000000     0.622180000000     0.090470000000     0.197486   
H775     H      0.961610000000     0.718810000000     0.490750000000     0.127748   
H776     H      0.942440000000     0.718200000000     0.427990000000     0.195627   
H777     H      0.968060000000     0.607540000000     0.350420000000     0.138706   
H778     H      0.947510000000     0.536650000000     0.348620000000     0.189145   
H779     H      0.946290000000     0.946120000000     0.448460000000     0.137964   
H780     H      0.968410000000     0.946490000000     0.010080000000     0.18836    
H781     H      0.962510000000     0.718430000000     0.396850000000     0.200078   
H782     H      0.962970000000     0.995680000000     0.350420000000     0.202441   
H783     H      0.952280000000     0.946490000000     0.045620000000     0.200792   
H784     H      0.947550000000     0.666280000000     0.089580000000     0.201149   
H785     H      0.672220000000     0.913980000000     0.213050000000     0.194769   
H786     H      0.738120000000     0.840350000000     0.289420000000     0.195928   
H787     H      0.673520000000     0.753470000000     0.222310000000     0.191179   
H788     H      0.739410000000     0.829450000000     0.147910000000     0.194636   
H789     H      0.712640000000     0.875690000000     0.334700000000     0.128693   
H790     H      0.692210000000     0.805670000000     0.342610000000     0.197459   
H791     H      0.697080000000     0.701670000000     0.258710000000     0.12671    
H792     H      0.696370000000     0.691630000000     0.192200000000     0.185817   
H793     H      0.697020000000     0.793270000000     0.102430000000     0.138969   
H794     H      0.719920000000     0.862670000000     0.094430000000     0.189388   
H795     H      0.711340000000     0.966790000000     0.180290000000     0.13728    
H796     H      0.693300000000     0.976030000000     0.243610000000     0.189125   
H797     H      0.713870000000     0.688790000000     0.158130000000     0.201785   
H798     H      0.702000000000     0.900530000000     0.089510000000     0.201745   
H799     H      0.715180000000     0.980150000000     0.271880000000     0.201551   
H800     H      0.713220000000     0.772210000000     0.347300000000     0.199875   
H801     H      0.648650000000     0.713900000000     0.110970000000     0.0482047  
H802     H      0.525650000000     0.734150000000     0.045660000000     0.0397086  
H803     H      0.599660000000     0.727640000000     0.182240000000     0.0381611  
H804     H      0.561950000000     0.640700000000     0.018970000000     0.0490024  
H805     H      0.525590000000     0.751820000000     0.118620000000     0.0365051  
H806     H      0.556350000000     0.767860000000     0.159600000000     0.0355966  
H807     H      0.599140000000     0.776870000000     0.168080000000     0.048826   
H808     H      0.512300000000     0.703430000000     0.076550000000     0.0479069  
H809     H      0.635400000000     0.665460000000     0.068750000000     0.0369551  
H810     H      0.635010000000     0.682910000000     0.141890000000     0.0376241  
H811     H      0.604650000000     0.649420000000     0.027760000000     0.0357932  
H812     H      0.561270000000     0.690010000000     0.005120000000     0.0384943  
H813     H      0.559820000000     0.685850000000     0.431010000000     0.0386857  
H814     H      0.598460000000     0.778900000000     0.271110000000     0.0487872  
H815     H      0.512410000000     0.695260000000     0.356720000000     0.0459937  
H816     H      0.636760000000     0.687670000000     0.298220000000     0.0376427  
H817     H      0.555860000000     0.764170000000     0.276030000000     0.0359563  
H818     H      0.524710000000     0.744610000000     0.315130000000     0.0360754  
H819     H      0.524010000000     0.727620000000     0.388300000000     0.0356989  
H820     H      0.601250000000     0.730690000000     0.255810000000     0.0381755  
H821     H      0.605200000000     0.651380000000     0.410990000000     0.0360723  
H822     H      0.562540000000     0.637010000000     0.416190000000     0.0492007  
H823     H      0.636350000000     0.670800000000     0.371820000000     0.0368089  
H824     H      0.648720000000     0.719470000000     0.329960000000     0.0478807  
H825     H      0.648780000000     0.940260000000     0.101230000000     0.0464367  
H826     H      0.525580000000     0.514280000000     0.110120000000     0.0433701  
H827     H      0.600570000000     0.860630000000     0.119600000000     0.0428888  
H828     H      0.562310000000     0.535680000000     0.026730000000     0.049009   
H829     H      0.525330000000     0.932840000000     0.132730000000     0.0367728  
H830     H      0.556190000000     0.888630000000     0.151430000000     0.0361351  
H831     H      0.598860000000     0.880990000000     0.161480000000     0.0490214  
H832     H      0.512290000000     0.975860000000     0.086780000000     0.0479741  
H833     H      0.635770000000     0.983400000000     0.055210000000     0.0363254  
H834     H      0.635180000000     0.901730000000     0.077770000000     0.0392418  
H835     H      0.604910000000     0.527620000000     0.036500000000     0.036328   
H836     H      0.560530000000     0.555740000000     0.068710000000     0.0435028  
H837     H      0.897720000000     0.708510000000     0.069600000000     0.0455301  
H838     H      0.779340000000     0.681180000000     0.148450000000     0.0393894  
H839     H      0.846310000000     0.686180000000     0.004320000000     0.0423417  
H840     H      0.813280000000     0.778670000000     0.167620000000     0.048897   
H841     H      0.776100000000     0.659340000000     0.076150000000     0.0364655  
H842     H      0.805300000000     0.643640000000     0.032770000000     0.0365514  
H843     H      0.847850000000     0.637690000000     0.020150000000     0.0486884  
H844     H      0.763250000000     0.708240000000     0.117630000000     0.0463174  
H845     H      0.884910000000     0.757370000000     0.111240000000     0.0361089  
H846     H      0.881260000000     0.735620000000     0.038730000000     0.0421721  
H847     H      0.855710000000     0.773050000000     0.154650000000     0.0364152  
H848     H      0.814710000000     0.730050000000     0.183160000000     0.0426268  
H849     H      0.898470000000     0.959080000000     0.364770000000     0.0465989  
H850     H      0.777390000000     0.986460000000     0.294060000000     0.0382555  
H851     H      0.848460000000     0.974310000000     0.433760000000     0.039803   
H852     H      0.812450000000     0.891920000000     0.267880000000     0.0483512  
H853     H      0.776000000000     0.503340000000     0.367380000000     0.0367014  
H854     H      0.806150000000     0.517290000000     0.409870000000     0.0356836  
H855     H      0.848770000000     0.523860000000     0.420640000000     0.0484724  
H856     H      0.762670000000     0.956420000000     0.324160000000     0.045484   
H857     H      0.885160000000     0.912120000000     0.321430000000     0.0363109  
H858     H      0.883410000000     0.928980000000     0.394980000000     0.0411729  
H859     H      0.855010000000     0.898160000000     0.278920000000     0.0354626  
H860     H      0.812760000000     0.941520000000     0.254940000000     0.0397317  
H861     H      0.812830000000     0.782330000000     0.273930000000     0.0493894  
H862     H      0.850730000000     0.610990000000     0.373130000000     0.0412196  
H863     H      0.774880000000     0.762320000000     0.356800000000     0.0360593  
H864     H      0.898690000000     0.691860000000     0.354240000000     0.049503   
H865     H      0.805600000000     0.638520000000     0.400980000000     0.0362479  
H866     H      0.774720000000     0.681330000000     0.380010000000     0.0365753  
H867     H      0.762430000000     0.723220000000     0.332720000000     0.0479376  
H868     H      0.848180000000     0.633380000000     0.413800000000     0.0487475  
H869     H      0.855470000000     0.776970000000     0.286550000000     0.0361663  
H870     H      0.810350000000     0.804360000000     0.315140000000     0.0408843  
H871     H      0.886360000000     0.734100000000     0.307440000000     0.0371706  
H872     H      0.885960000000     0.652700000000     0.330550000000     0.0413113  
H873     H      0.648100000000     0.956250000000     0.322460000000     0.0511247  
H874     H      0.528210000000     0.931300000000     0.396830000000     0.0400663  
H875     H      0.597390000000     0.936690000000     0.255080000000     0.040378   
H876     H      0.562880000000     0.527750000000     0.418220000000     0.049646   
H877     H      0.525950000000     0.910780000000     0.324340000000     0.0358638  
H878     H      0.555650000000     0.894940000000     0.281730000000     0.0365289  
H879     H      0.598340000000     0.887960000000     0.270500000000     0.049792   
H880     H      0.513000000000     0.959570000000     0.365900000000     0.0450666  
H881     H      0.635190000000     0.505160000000     0.364120000000     0.0376553  
H882     H      0.632610000000     0.984750000000     0.291480000000     0.0380073  
H883     H      0.605480000000     0.521030000000     0.406740000000     0.0367174  
H884     H      0.563720000000     0.978950000000     0.433450000000     0.0406538  
H885     H      0.762430000000     0.953100000000     0.111270000000     0.0471551  
H886     H      0.885250000000     0.932680000000     0.046570000000     0.0384729  
H887     H      0.810840000000     0.942430000000     0.182690000000     0.0399783  
H888     H      0.848570000000     0.523670000000     0.017340000000     0.0486179  
H889     H      0.885810000000     0.917390000000     0.120670000000     0.0356313  
H890     H      0.855100000000     0.902260000000     0.162000000000     0.0358849  
H891     H      0.812520000000     0.892600000000     0.170620000000     0.0488587  
H892     H      0.898770000000     0.963580000000     0.077190000000     0.0433311  
H893     H      0.775370000000     0.999310000000     0.067670000000     0.036694   
H894     H      0.776290000000     0.984120000000     0.141970000000     0.0402902  
H895     H      0.806080000000     0.514410000000     0.026310000000     0.0358271  
H896     H      0.850350000000     0.973740000000     0.005580000000     0.0398974  
N97      N      0.534330000000     0.675270000000     0.040020000000    -0.162368   
N98      N      0.626710000000     0.741940000000     0.147350000000    -0.16275    
N99      N      0.626710000000     0.745990000000     0.292760000000    -0.163774   
N100     N      0.534390000000     0.669530000000     0.394370000000    -0.164004   
N101     N      0.534510000000     0.513740000000     0.058010000000    -0.16299    
N102     N      0.626640000000     0.902690000000     0.130010000000    -0.163308   
N103     N      0.785950000000     0.741080000000     0.150250000000    -0.162393   
N104     N      0.875110000000     0.675570000000     0.037280000000    -0.162751   
N105     N      0.784960000000     0.927160000000     0.288580000000    -0.162945   
N106     N      0.876240000000     0.988460000000     0.400040000000    -0.162258   
N107     N      0.876420000000     0.653970000000     0.382430000000    -0.163309   
N108     N      0.784700000000     0.761570000000     0.305020000000    -0.163417   
N109     N      0.535510000000     0.990940000000     0.399840000000    -0.162574   
N110     N      0.625660000000     0.925010000000     0.288680000000    -0.16215    
N111     N      0.876410000000     0.991480000000     0.040760000000    -0.16437    
N112     N      0.784720000000     0.925110000000     0.147440000000    -0.163862   
O385     O      0.915820000000     0.999780000000     0.407830000000    -0.37219    
O386     O      0.888660000000     0.536420000000     0.435220000000    -0.36832    
O387     O      0.995230000000     0.517910000000     0.045010000000    -0.369181   
O388     O      0.522310000000     0.547780000000     0.011840000000    -0.372303   
O389     O      0.915620000000     0.505870000000     0.035630000000    -0.381808   
O390     O      0.888470000000     0.539480000000     0.005470000000    -0.373814   
O391     O      0.996030000000     0.501990000000     0.407340000000    -0.374254   
O392     O      0.522830000000     0.538260000000     0.435730000000    -0.373223   
O393     O      0.956690000000     0.951370000000     0.428840000000    -0.351308   
O394     O      0.955440000000     0.517060000000     0.361730000000    -0.525544   
O395     O      0.959460000000     0.960280000000     0.027030000000    -0.525051   
O396     O      0.951770000000     0.534490000000     0.084680000000    -0.348982   
O397     O      0.932990000000     0.524270000000     0.472820000000    -0.498336   
O398     O      0.978470000000     0.524320000000     0.473360000000    -0.631759   
O399     O      0.995180000000     0.655700000000     0.400410000000    -0.382009   
O400     O      0.522310000000     0.623780000000     0.432000000000    -0.373318   
O401     O      0.914610000000     0.664520000000     0.029770000000    -0.373936   
O402     O      0.887820000000     0.626860000000     0.002820000000    -0.373092   
O403     O      0.994800000000     0.663260000000     0.032800000000    -0.370059   
O404     O      0.521970000000     0.628170000000     0.003920000000    -0.368953   
O405     O      0.915600000000     0.649320000000     0.395490000000    -0.374524   
O406     O      0.888460000000     0.618380000000     0.427790000000    -0.373218   
O407     O      0.953030000000     0.704470000000     0.413070000000    -0.528861   
O408     O      0.957470000000     0.629730000000     0.354450000000    -0.348824   
O409     O      0.955320000000     0.713080000000     0.013610000000    -0.34383    
O410     O      0.953670000000     0.644040000000     0.077800000000    -0.528138   
O411     O      0.977560000000     0.640500000000     0.466490000000    -0.634823   
O412     O      0.932280000000     0.640280000000     0.465930000000    -0.498139   
O413     O      0.978460000000     0.578420000000     0.418340000000    -0.498438   
O414     O      0.932150000000     0.585890000000     0.020790000000    -0.632543   
O415     O      0.933080000000     0.577810000000     0.418260000000    -0.634614   
O416     O      0.977810000000     0.586540000000     0.020740000000    -0.494539   
O417     O      0.745470000000     0.910860000000     0.152580000000    -0.376563   
O418     O      0.772610000000     0.876950000000     0.182520000000    -0.373216   
O419     O      0.665140000000     0.914040000000     0.281100000000    -0.372258   
O420     O      0.638350000000     0.877970000000     0.252510000000    -0.373046   
O421     O      0.745400000000     0.915890000000     0.280710000000    -0.376337   
O422     O      0.772540000000     0.879660000000     0.252890000000    -0.368375   
O423     O      0.665930000000     0.898510000000     0.142950000000    -0.37379    
O424     O      0.638860000000     0.868810000000     0.176270000000    -0.372845   
O425     O      0.701320000000     0.956870000000     0.161680000000    -0.351599   
O426     O      0.710030000000     0.882480000000     0.104120000000    -0.526679   
O427     O      0.704500000000     0.964250000000     0.258900000000    -0.526524   
O428     O      0.705450000000     0.900090000000     0.326910000000    -0.342432   
O429     O      0.728200000000     0.892120000000     0.215230000000    -0.497227   
O430     O      0.682670000000     0.892110000000     0.214720000000    -0.632486   
O431     O      0.666250000000     0.753690000000     0.154720000000    -0.373908   
O432     O      0.639110000000     0.788620000000     0.183820000000    -0.369493   
O433     O      0.745530000000     0.766390000000     0.291930000000    -0.377176   
O434     O      0.772690000000     0.797760000000     0.259990000000    -0.372936   
O435     O      0.665950000000     0.759870000000     0.286960000000    -0.380467   
O436     O      0.638820000000     0.792370000000     0.255770000000    -0.372751   
O437     O      0.746470000000     0.752260000000     0.157740000000    -0.373667   
O438     O      0.773290000000     0.789550000000     0.185010000000    -0.372478   
O439     O      0.705440000000     0.704080000000     0.174620000000    -0.523054   
O440     O      0.707560000000     0.772020000000     0.109500000000    -0.351529   
O441     O      0.708200000000     0.711250000000     0.276120000000    -0.340729   
O442     O      0.703280000000     0.787700000000     0.332780000000    -0.529373   
O443     O      0.683550000000     0.775900000000     0.221420000000    -0.634477   
O444     O      0.728790000000     0.776060000000     0.222000000000    -0.493407   
O445     O      0.683310000000     0.829950000000     0.167260000000    -0.498349   
O446     O      0.728070000000     0.838470000000     0.269720000000    -0.634621   
O447     O      0.728930000000     0.830540000000     0.167200000000    -0.632885   
O448     O      0.682680000000     0.837950000000     0.269670000000    -0.497609   
Zr73     Zr     0.955890000000     0.521010000000     0.422700000000     1.37373    
Zr74     Zr     0.955390000000     0.529140000000     0.023350000000     1.37492    
Zr75     Zr     0.955360000000     0.635360000000     0.415860000000     1.37645    
Zr76     Zr     0.954750000000     0.643190000000     0.016760000000     1.37461    
Zr77     Zr     0.910600000000     0.581900000000     0.469080000000     1.37747    
Zr78     Zr     0.500110000000     0.582890000000     0.469810000000     1.37814    
Zr79     Zr     0.705740000000     0.887340000000     0.164740000000     1.37602    
Zr80     Zr     0.705280000000     0.895350000000     0.265360000000     1.37364    
Zr81     Zr     0.706320000000     0.773250000000     0.171150000000     1.37377    
Zr82     Zr     0.705730000000     0.780990000000     0.272100000000     1.37652    
Zr83     Zr     0.750520000000     0.834420000000     0.218870000000     1.37801    
Zr84     Zr     0.661040000000     0.833550000000     0.218190000000     1.37785    
C897     C      0.894240000000     0.508970000000     0.914860000000     0.387425   
C898     C      0.516710000000     0.526750000000     0.537400000000     0.393013   
C899     C      0.894140000000     0.513260000000     0.526960000000     0.394722   
C900     C      0.517480000000     0.511280000000     0.914720000000     0.390349   
C901     C      0.516680000000     0.648550000000     0.909160000000     0.391676   
C902     C      0.893160000000     0.654870000000     0.522790000000     0.389423   
C903     C      0.516380000000     0.654690000000     0.525200000000     0.387894   
C904     C      0.894110000000     0.640430000000     0.902900000000     0.39041    
C905     C      0.766960000000     0.903330000000     0.661170000000     0.394093   
C906     C      0.643700000000     0.904790000000     0.773680000000     0.389411   
C907     C      0.766970000000     0.906820000000     0.773560000000     0.3881     
C908     C      0.644450000000     0.889730000000     0.650620000000     0.394134   
C909     C      0.644690000000     0.762290000000     0.662350000000     0.387255   
C910     C      0.767030000000     0.775370000000     0.784640000000     0.392618   
C911     C      0.644450000000     0.767190000000     0.778280000000     0.389594   
C912     C      0.767930000000     0.761760000000     0.664840000000     0.390838   
C913     C      0.548340000000     0.717630000000     0.586550000000     0.0122279  
C914     C      0.560870000000     0.750200000000     0.637930000000    -0.0437718  
C915     C      0.602310000000     0.746670000000     0.659920000000    -0.0250985  
C916     C      0.584060000000     0.737030000000     0.633460000000     0.0120562  
C917     C      0.632180000000     0.708600000000     0.625620000000    -0.0255437  
C918     C      0.612710000000     0.700010000000     0.600610000000     0.0125534  
C919     C      0.543300000000     0.740910000000     0.614630000000    -0.0435702  
C920     C      0.589520000000     0.713610000000     0.605470000000    -0.00644108 
C921     C      0.617710000000     0.676500000000     0.572660000000    -0.0436518  
C922     C      0.600140000000     0.667170000000     0.549380000000    -0.0435482  
C923     C      0.558710000000     0.670800000000     0.527330000000    -0.0250186  
C924     C      0.576950000000     0.680410000000     0.553800000000     0.0121321  
C925     C      0.528780000000     0.708490000000     0.561840000000    -0.0247967  
C926     C      0.571510000000     0.703890000000     0.581770000000    -0.00618989 
C927     C      0.583980000000     0.736160000000     0.803710000000     0.0121299  
C928     C      0.542700000000     0.735540000000     0.820080000000    -0.0433795  
C929     C      0.528240000000     0.702240000000     0.872280000000    -0.0247223  
C930     C      0.547920000000     0.712720000000     0.848370000000     0.0125728  
C931     C      0.558520000000     0.667040000000     0.908290000000    -0.0243861  
C932     C      0.577060000000     0.679020000000     0.883090000000     0.0124819  
C933     C      0.560460000000     0.746830000000     0.797860000000    -0.0431038  
C934     C      0.571430000000     0.701770000000     0.854710000000    -0.00599345 
C935     C      0.600580000000     0.668550000000     0.889060000000    -0.0432563  
C936     C      0.618360000000     0.679810000000     0.866820000000    -0.043658   
C937     C      0.632770000000     0.712940000000     0.814500000000    -0.0251371  
C938     C      0.613130000000     0.702560000000     0.838490000000     0.0126887  
C939     C      0.602590000000     0.748870000000     0.778900000000    -0.0238871  
C940     C      0.589620000000     0.713500000000     0.832140000000    -0.00603453 
C941     C      0.548290000000     0.966350000000     0.600410000000     0.0116968  
C942     C      0.560760000000     0.911570000000     0.634040000000    -0.0437138  
C943     C      0.602460000000     0.887670000000     0.634390000000    -0.025043   
C944     C      0.584050000000     0.915950000000     0.622740000000     0.0125574  
C945     C      0.632320000000     0.923110000000     0.598300000000    -0.0246914  
C946     C      0.612870000000     0.950200000000     0.587860000000     0.0123831  
C947     C      0.543140000000     0.936680000000     0.623260000000    -0.0434205  
C948     C      0.589580000000     0.945490000000     0.599660000000    -0.0064616  
C949     C      0.617980000000     0.979670000000     0.564780000000    -0.0428687  
C950     C      0.600360000000     0.504770000000     0.553980000000    -0.0435385  
C951     C      0.558680000000     0.528810000000     0.553780000000    -0.0251951  
C952     C      0.577080000000     0.500460000000     0.565370000000     0.012448   
C953     C      0.528750000000     0.993050000000     0.589550000000    -0.0236457  
C954     C      0.571560000000     0.970970000000     0.588480000000    -0.00575096 
C955     C      0.799150000000     0.697080000000     0.604450000000     0.0122905  
C956     C      0.810250000000     0.662830000000     0.553210000000    -0.0431489  
C957     C      0.850450000000     0.668440000000     0.526990000000    -0.0253405  
C958     C      0.833120000000     0.678110000000     0.554770000000     0.0123261  
C959     C      0.880360000000     0.710920000000     0.556560000000    -0.0246844  
C960     C      0.861940000000     0.719270000000     0.583180000000     0.011468   
C961     C      0.793560000000     0.671920000000     0.577880000000    -0.0431489  
C962     C      0.839080000000     0.703490000000     0.581230000000    -0.0061527  
C963     C      0.867470000000     0.744660000000     0.609610000000    -0.0434582  
C964     C      0.850780000000     0.753770000000     0.634270000000    -0.0434663  
C965     C      0.810630000000     0.747990000000     0.660590000000    -0.0252684  
C966     C      0.827920000000     0.738410000000     0.632760000000     0.0126927  
C967     C      0.780590000000     0.705950000000     0.630740000000    -0.0245715  
C968     C      0.821970000000     0.712980000000     0.606320000000    -0.00625026 
C969     C      0.798770000000     0.968450000000     0.835940000000     0.0116767  
C970     C      0.810800000000     0.999690000000     0.888210000000    -0.0431345  
C971     C      0.851720000000     0.993810000000     0.911930000000    -0.0243441  
C972     C      0.833830000000     0.985430000000     0.884620000000     0.0112704  
C973     C      0.881550000000     0.954800000000     0.878600000000    -0.0255963  
C974     C      0.862460000000     0.947390000000     0.852640000000     0.0117163  
C975     C      0.793570000000     0.991590000000     0.864040000000    -0.0432253  
C976     C      0.839430000000     0.962090000000     0.856620000000    -0.00649317 
C977     C      0.867620000000     0.924000000000     0.824670000000    -0.0439814  
C978     C      0.850380000000     0.915860000000     0.800520000000    -0.0437808  
C979     C      0.809490000000     0.921920000000     0.776700000000    -0.0248117  
C980     C      0.827370000000     0.930210000000     0.804050000000     0.0113974  
C981     C      0.779580000000     0.960570000000     0.810270000000    -0.0250492  
C982     C      0.821770000000     0.953600000000     0.832030000000    -0.00641906 
C983     C      0.833780000000     0.665910000000     0.872990000000     0.0125669  
C984     C      0.792680000000     0.685410000000     0.871250000000    -0.0434767  
C985     C      0.778560000000     0.740990000000     0.836490000000    -0.0252002  
C986     C      0.798020000000     0.714660000000     0.848080000000     0.0133585  
C987     C      0.808860000000     0.776730000000     0.801120000000    -0.0249625  
C988     C      0.827260000000     0.749280000000     0.814230000000     0.0129545  
C989     C      0.810290000000     0.661120000000     0.883320000000    -0.0431824  
C990     C      0.821510000000     0.719960000000     0.837410000000    -0.00616285 
C991     C      0.850760000000     0.754240000000     0.804080000000    -0.0433149  
C992     C      0.868390000000     0.729950000000     0.816130000000    -0.0437569  
C993     C      0.882480000000     0.674220000000     0.850770000000    -0.0255425  
C994     C      0.863030000000     0.700650000000     0.839260000000     0.0130814  
C995     C      0.852250000000     0.638940000000     0.886630000000    -0.0247486  
C996     C      0.839540000000     0.695310000000     0.849900000000    -0.00623181 
C997     C      0.548950000000     0.947420000000     0.853810000000     0.0120726  
C998     C      0.560480000000     0.913660000000     0.802550000000    -0.0433875  
C999     C      0.601080000000     0.918580000000     0.777680000000    -0.0253887  
C1000    C      0.583470000000     0.928270000000     0.805040000000     0.0135153  
C1001    C      0.631020000000     0.959690000000     0.808810000000    -0.0259111  
C1002    C      0.612260000000     0.968150000000     0.834880000000     0.0133723  
C1003    C      0.543500000000     0.922830000000     0.826780000000    -0.0432274  
C1004    C      0.589280000000     0.953060000000     0.831990000000    -0.0060495  
C1005    C      0.617660000000     0.992970000000     0.861770000000    -0.0417703  
C1006    C      0.600680000000     0.502200000000     0.885980000000    -0.0426713  
C1007    C      0.560100000000     0.997180000000     0.910910000000    -0.0250582  
C1008    C      0.577700000000     0.987510000000     0.883530000000     0.0139978  
C1009    C      0.530070000000     0.956380000000     0.879580000000    -0.0239669  
C1010    C      0.571890000000     0.962660000000     0.856620000000    -0.00593746 
C1011    C      0.862790000000     0.949710000000     0.587500000000     0.011122   
C1012    C      0.850490000000     0.918960000000     0.639770000000    -0.043639   
C1013    C      0.808900000000     0.922140000000     0.661110000000    -0.0245052  
C1014    C      0.827210000000     0.931390000000     0.634730000000     0.012363   
C1015    C      0.778980000000     0.958350000000     0.625760000000    -0.0250413  
C1016    C      0.798330000000     0.966560000000     0.600600000000     0.01246    
C1017    C      0.868010000000     0.927710000000     0.616290000000    -0.0431408  
C1018    C      0.821610000000     0.953640000000     0.606020000000    -0.00668074 
C1019    C      0.793140000000     0.988830000000     0.571960000000    -0.0443637  
C1020    C      0.810670000000     0.997600000000     0.548480000000    -0.0423348  
C1021    C      0.852230000000     0.994220000000     0.527040000000    -0.0234924  
C1022    C      0.833930000000     0.985070000000     0.553460000000     0.0114147  
C1023    C      0.882230000000     0.958470000000     0.562650000000    -0.0235588  
C1024    C      0.839530000000     0.962770000000     0.582150000000    -0.00561733 
H897     H      0.988940000000     0.502460000000     0.975050000000     0.194009   
H898     H      0.921620000000     0.587100000000     0.540010000000     0.191976   
H899     H      0.987570000000     0.662940000000     0.965440000000     0.195674   
H900     H      0.923070000000     0.575770000000     0.898540000000     0.197691   
H901     H      0.936720000000     0.548310000000     0.588520000000     0.131284   
H902     H      0.959420000000     0.622180000000     0.590470000000     0.197229   
H903     H      0.961610000000     0.718820000000     0.990750000000     0.127754   
H904     H      0.942440000000     0.718200000000     0.927980000000     0.195707   
H905     H      0.968060000000     0.607540000000     0.850420000000     0.138704   
H906     H      0.947510000000     0.536650000000     0.848620000000     0.189138   
H907     H      0.946290000000     0.946110000000     0.948460000000     0.137935   
H908     H      0.968410000000     0.946490000000     0.510080000000     0.188298   
H909     H      0.962510000000     0.718430000000     0.896840000000     0.199962   
H910     H      0.962980000000     0.995680000000     0.850420000000     0.2023     
H911     H      0.952280000000     0.946480000000     0.545620000000     0.200686   
H912     H      0.947550000000     0.666280000000     0.589580000000     0.201132   
H913     H      0.672220000000     0.913980000000     0.713050000000     0.194762   
H914     H      0.738120000000     0.840350000000     0.789420000000     0.195942   
H915     H      0.673520000000     0.753470000000     0.722310000000     0.191365   
H916     H      0.739410000000     0.829450000000     0.647910000000     0.194805   
H917     H      0.712630000000     0.875690000000     0.834700000000     0.128762   
H918     H      0.692210000000     0.805670000000     0.842620000000     0.197493   
H919     H      0.697080000000     0.701660000000     0.758710000000     0.126692   
H920     H      0.696370000000     0.691630000000     0.692200000000     0.185817   
H921     H      0.697020000000     0.793270000000     0.602430000000     0.138975   
H922     H      0.719920000000     0.862670000000     0.594430000000     0.189281   
H923     H      0.711340000000     0.966790000000     0.680290000000     0.137292   
H924     H      0.693300000000     0.976020000000     0.743610000000     0.189259   
H925     H      0.713870000000     0.688790000000     0.658130000000     0.201782   
H926     H      0.701990000000     0.900530000000     0.589500000000     0.201194   
H927     H      0.715180000000     0.980140000000     0.771880000000     0.201707   
H928     H      0.713210000000     0.772220000000     0.847290000000     0.200263   
H929     H      0.648650000000     0.713900000000     0.610970000000     0.0481981  
H930     H      0.525650000000     0.734150000000     0.545660000000     0.0397001  
H931     H      0.599660000000     0.727640000000     0.682230000000     0.0381793  
H932     H      0.561950000000     0.640700000000     0.518970000000     0.0490111  
H933     H      0.525590000000     0.751820000000     0.618620000000     0.0365055  
H934     H      0.556350000000     0.767860000000     0.659600000000     0.0355994  
H935     H      0.599140000000     0.776870000000     0.668080000000     0.0488338  
H936     H      0.512300000000     0.703430000000     0.576550000000     0.0479117  
H937     H      0.635400000000     0.665460000000     0.568750000000     0.0369057  
H938     H      0.635010000000     0.682910000000     0.641890000000     0.0376205  
H939     H      0.604650000000     0.649420000000     0.527760000000     0.0357899  
H940     H      0.561270000000     0.690010000000     0.505120000000     0.0384978  
H941     H      0.559820000000     0.685850000000     0.931000000000     0.0386537  
H942     H      0.598460000000     0.778900000000     0.771110000000     0.0487375  
H943     H      0.512410000000     0.695260000000     0.856720000000     0.0459979  
H944     H      0.636760000000     0.687670000000     0.798220000000     0.0376385  
H945     H      0.555860000000     0.764170000000     0.776020000000     0.0359249  
H946     H      0.524710000000     0.744620000000     0.815130000000     0.0360776  
H947     H      0.524010000000     0.727620000000     0.888300000000     0.035695   
H948     H      0.601250000000     0.730690000000     0.755800000000     0.0381174  
H949     H      0.605200000000     0.651380000000     0.910990000000     0.0360882  
H950     H      0.562540000000     0.637010000000     0.916190000000     0.0491698  
H951     H      0.636350000000     0.670800000000     0.871810000000     0.0367933  
H952     H      0.648720000000     0.719470000000     0.829960000000     0.0478638  
H953     H      0.648790000000     0.940260000000     0.601230000000     0.046413   
H954     H      0.525580000000     0.514280000000     0.610120000000     0.0433741  
H955     H      0.600570000000     0.860630000000     0.619600000000     0.0428723  
H956     H      0.562310000000     0.535680000000     0.526730000000     0.0489948  
H957     H      0.525330000000     0.932840000000     0.632720000000     0.0367772  
H958     H      0.556190000000     0.888640000000     0.651430000000     0.0361516  
H959     H      0.598860000000     0.880990000000     0.661480000000     0.0490081  
H960     H      0.512290000000     0.975860000000     0.586770000000     0.0479721  
H961     H      0.635770000000     0.983400000000     0.555210000000     0.0363219  
H962     H      0.635190000000     0.901730000000     0.577770000000     0.0392237  
H963     H      0.604910000000     0.527620000000     0.536500000000     0.0363175  
H964     H      0.560530000000     0.555740000000     0.568710000000     0.0435141  
H965     H      0.897720000000     0.708510000000     0.569600000000     0.045529   
H966     H      0.779340000000     0.681180000000     0.648450000000     0.0393938  
H967     H      0.846310000000     0.686180000000     0.504330000000     0.0423365  
H968     H      0.813280000000     0.778670000000     0.667630000000     0.0489174  
H969     H      0.776100000000     0.659340000000     0.576150000000     0.0364609  
H970     H      0.805300000000     0.643640000000     0.532770000000     0.036539   
H971     H      0.847850000000     0.637690000000     0.520150000000     0.0486806  
H972     H      0.763250000000     0.708240000000     0.617630000000     0.0463102  
H973     H      0.884910000000     0.757370000000     0.611240000000     0.0360673  
H974     H      0.881250000000     0.735620000000     0.538730000000     0.042166   
H975     H      0.855710000000     0.773050000000     0.654650000000     0.0364236  
H976     H      0.814710000000     0.730050000000     0.683160000000     0.0426332  
H977     H      0.898460000000     0.959080000000     0.864770000000     0.0466255  
H978     H      0.777390000000     0.986460000000     0.794050000000     0.0382587  
H979     H      0.848460000000     0.974310000000     0.933760000000     0.0397737  
H980     H      0.812450000000     0.891920000000     0.767880000000     0.0483426  
H981     H      0.776000000000     0.503340000000     0.867380000000     0.0366976  
H982     H      0.806150000000     0.517290000000     0.909870000000     0.0356733  
H983     H      0.848780000000     0.523860000000     0.920650000000     0.0484718  
H984     H      0.762670000000     0.956420000000     0.824150000000     0.0454948  
H985     H      0.885160000000     0.912120000000     0.821430000000     0.0363076  
H986     H      0.883410000000     0.928980000000     0.894980000000     0.0411726  
H987     H      0.855010000000     0.898170000000     0.778920000000     0.0354764  
H988     H      0.812760000000     0.941520000000     0.754940000000     0.0397252  
H989     H      0.812830000000     0.782330000000     0.773930000000     0.049387   
H990     H      0.850730000000     0.610990000000     0.873130000000     0.041228   
H991     H      0.774880000000     0.762320000000     0.856800000000     0.0360615  
H992     H      0.898690000000     0.691860000000     0.854240000000     0.049499   
H993     H      0.805610000000     0.638520000000     0.900980000000     0.0362475  
H994     H      0.774720000000     0.681330000000     0.880010000000     0.0365656  
H995     H      0.762440000000     0.723220000000     0.832720000000     0.0479576  
H996     H      0.848180000000     0.633380000000     0.913790000000     0.0487486  
H997     H      0.855470000000     0.776970000000     0.786550000000     0.0361665  
H998     H      0.810350000000     0.804360000000     0.815140000000     0.0408809  
H999     H      0.886360000000     0.734100000000     0.807440000000     0.0371713  
H1000    H      0.885960000000     0.652690000000     0.830550000000     0.0413068  
H1001    H      0.648090000000     0.956250000000     0.822460000000     0.0511315  
H1002    H      0.528210000000     0.931310000000     0.896830000000     0.0400817  
H1003    H      0.597390000000     0.936690000000     0.755080000000     0.0403702  
H1004    H      0.562880000000     0.527750000000     0.918220000000     0.0496444  
H1005    H      0.525950000000     0.910780000000     0.824340000000     0.035911   
H1006    H      0.555650000000     0.894940000000     0.781730000000     0.0365161  
H1007    H      0.598330000000     0.887960000000     0.770500000000     0.04977    
H1008    H      0.513000000000     0.959570000000     0.865900000000     0.0450859  
H1009    H      0.635190000000     0.505160000000     0.864120000000     0.0376456  
H1010    H      0.632600000000     0.984750000000     0.791480000000     0.0380176  
H1011    H      0.605480000000     0.521030000000     0.906740000000     0.0367113  
H1012    H      0.563720000000     0.978950000000     0.933450000000     0.040639   
H1013    H      0.762430000000     0.953100000000     0.611270000000     0.0471456  
H1014    H      0.885250000000     0.932680000000     0.546570000000     0.0384613  
H1015    H      0.810840000000     0.942430000000     0.682690000000     0.039993   
H1016    H      0.848570000000     0.523670000000     0.517340000000     0.0486005  
H1017    H      0.885810000000     0.917390000000     0.620670000000     0.0356294  
H1018    H      0.855100000000     0.902260000000     0.662000000000     0.0358886  
H1019    H      0.812520000000     0.892600000000     0.670620000000     0.0488739  
H1020    H      0.898770000000     0.963580000000     0.577200000000     0.0433219  
H1021    H      0.775380000000     0.999300000000     0.567660000000     0.0367262  
H1022    H      0.776290000000     0.984120000000     0.641970000000     0.0402797  
H1023    H      0.806070000000     0.514410000000     0.526310000000     0.0357939  
H1024    H      0.850350000000     0.973740000000     0.505580000000     0.0399142  
N113     N      0.534330000000     0.675270000000     0.540020000000    -0.162365   
N114     N      0.626710000000     0.741940000000     0.647350000000    -0.162747   
N115     N      0.626710000000     0.745990000000     0.792760000000    -0.163816   
N116     N      0.534390000000     0.669530000000     0.894370000000    -0.164009   
N117     N      0.534510000000     0.513740000000     0.558020000000    -0.162926   
N118     N      0.626630000000     0.902690000000     0.630010000000    -0.163253   
N119     N      0.785950000000     0.741080000000     0.650250000000    -0.162374   
N120     N      0.875110000000     0.675570000000     0.537280000000    -0.162797   
N121     N      0.784960000000     0.927160000000     0.788570000000    -0.162983   
N122     N      0.876240000000     0.988460000000     0.900040000000    -0.162293   
N123     N      0.876420000000     0.653970000000     0.882430000000    -0.16332    
N124     N      0.784700000000     0.761570000000     0.805020000000    -0.163464   
N125     N      0.535510000000     0.990940000000     0.899840000000    -0.162574   
N126     N      0.625660000000     0.925010000000     0.788680000000    -0.162155   
N127     N      0.876410000000     0.991480000000     0.540760000000    -0.164381   
N128     N      0.784710000000     0.925110000000     0.647440000000    -0.163945   
O449     O      0.915810000000     0.999780000000     0.907830000000    -0.372299   
O450     O      0.888660000000     0.536410000000     0.935220000000    -0.368397   
O451     O      0.995230000000     0.517910000000     0.545010000000    -0.369131   
O452     O      0.522310000000     0.547780000000     0.511840000000    -0.372494   
O453     O      0.915620000000     0.505870000000     0.535630000000    -0.381768   
O454     O      0.888470000000     0.539480000000     0.505460000000    -0.373797   
O455     O      0.996030000000     0.501990000000     0.907340000000    -0.374248   
O456     O      0.522830000000     0.538260000000     0.935730000000    -0.373141   
O457     O      0.956690000000     0.951370000000     0.928840000000    -0.351318   
O458     O      0.955440000000     0.517060000000     0.861730000000    -0.525556   
O459     O      0.959460000000     0.960280000000     0.527030000000    -0.524917   
O460     O      0.951770000000     0.534490000000     0.584680000000    -0.34889    
O461     O      0.932990000000     0.524270000000     0.972820000000    -0.498307   
O462     O      0.978470000000     0.524320000000     0.973350000000    -0.631691   
O463     O      0.995180000000     0.655700000000     0.900410000000    -0.382009   
O464     O      0.522310000000     0.623780000000     0.932000000000    -0.373253   
O465     O      0.914610000000     0.664520000000     0.529770000000    -0.373945   
O466     O      0.887820000000     0.626860000000     0.502820000000    -0.372985   
O467     O      0.994800000000     0.663260000000     0.532800000000    -0.370072   
O468     O      0.521970000000     0.628170000000     0.503920000000    -0.369059   
O469     O      0.915610000000     0.649320000000     0.895490000000    -0.374264   
O470     O      0.888460000000     0.618380000000     0.927790000000    -0.373157   
O471     O      0.953030000000     0.704470000000     0.913070000000    -0.528847   
O472     O      0.957470000000     0.629730000000     0.854450000000    -0.348829   
O473     O      0.955310000000     0.713080000000     0.513610000000    -0.343832   
O474     O      0.953670000000     0.644050000000     0.577790000000    -0.52793    
O475     O      0.977560000000     0.640510000000     0.966490000000    -0.634947   
O476     O      0.932280000000     0.640280000000     0.965930000000    -0.498165   
O477     O      0.978460000000     0.578420000000     0.918340000000    -0.498428   
O478     O      0.932150000000     0.585890000000     0.520790000000    -0.632583   
O479     O      0.933080000000     0.577810000000     0.918260000000    -0.634801   
O480     O      0.977810000000     0.586540000000     0.520740000000    -0.494554   
O481     O      0.745470000000     0.910860000000     0.652580000000    -0.376725   
O482     O      0.772610000000     0.876950000000     0.682520000000    -0.373265   
O483     O      0.665140000000     0.914030000000     0.781100000000    -0.372187   
O484     O      0.638350000000     0.877970000000     0.752510000000    -0.373029   
O485     O      0.745400000000     0.915890000000     0.780710000000    -0.376444   
O486     O      0.772540000000     0.879660000000     0.752890000000    -0.36839    
O487     O      0.665930000000     0.898510000000     0.642960000000    -0.373749   
O488     O      0.638860000000     0.868810000000     0.676270000000    -0.372808   
O489     O      0.701320000000     0.956880000000     0.661680000000    -0.351631   
O490     O      0.710030000000     0.882470000000     0.604130000000    -0.52616    
O491     O      0.704500000000     0.964250000000     0.758900000000    -0.526796   
O492     O      0.705450000000     0.900090000000     0.826910000000    -0.342447   
O493     O      0.728190000000     0.892120000000     0.715230000000    -0.497486   
O494     O      0.682670000000     0.892110000000     0.714720000000    -0.632418   
O495     O      0.666250000000     0.753690000000     0.654720000000    -0.373906   
O496     O      0.639110000000     0.788620000000     0.683820000000    -0.369495   
O497     O      0.745530000000     0.766390000000     0.791930000000    -0.377023   
O498     O      0.772690000000     0.797760000000     0.759990000000    -0.372925   
O499     O      0.665950000000     0.759870000000     0.786950000000    -0.38053    
O500     O      0.638820000000     0.792370000000     0.755770000000    -0.372768   
O501     O      0.746470000000     0.752260000000     0.657750000000    -0.373704   
O502     O      0.773300000000     0.789550000000     0.685010000000    -0.372377   
O503     O      0.705440000000     0.704080000000     0.674620000000    -0.523041   
O504     O      0.707560000000     0.772020000000     0.609500000000    -0.351538   
O505     O      0.708200000000     0.711250000000     0.776120000000    -0.340711   
O506     O      0.703280000000     0.787700000000     0.832780000000    -0.529791   
O507     O      0.683550000000     0.775890000000     0.721420000000    -0.634584   
O508     O      0.728790000000     0.776060000000     0.722000000000    -0.493405   
O509     O      0.683310000000     0.829950000000     0.667260000000    -0.498236   
O510     O      0.728070000000     0.838470000000     0.769720000000    -0.634674   
O511     O      0.728930000000     0.830550000000     0.667190000000    -0.633001   
O512     O      0.682680000000     0.837950000000     0.769670000000    -0.49754    
Zr85     Zr     0.955890000000     0.521010000000     0.922700000000     1.37382    
Zr86     Zr     0.955390000000     0.529140000000     0.523340000000     1.37493    
Zr87     Zr     0.955360000000     0.635360000000     0.915860000000     1.37649    
Zr88     Zr     0.954750000000     0.643190000000     0.516760000000     1.37458    
Zr89     Zr     0.910600000000     0.581900000000     0.969080000000     1.37734    
Zr90     Zr     0.500100000000     0.582890000000     0.969810000000     1.37794    
Zr91     Zr     0.705750000000     0.887350000000     0.664740000000     1.37618    
Zr92     Zr     0.705290000000     0.895350000000     0.765350000000     1.37378    
Zr93     Zr     0.706320000000     0.773250000000     0.671150000000     1.37372    
Zr94     Zr     0.705730000000     0.780990000000     0.772100000000     1.37658    
Zr95     Zr     0.750520000000     0.834420000000     0.718870000000     1.37782    
Zr96     Zr     0.661040000000     0.833550000000     0.718190000000     1.37781    


