data_structure

_audit_creation_method RASPA-1.0
_audit_creation_date 2023-6-4
_audit_author_name 'Poobodin Mano'

_cell_length_a    31.4031
_cell_length_b    34.9334
_cell_length_c    37.8146
_cell_angle_alpha 82.7616
_cell_angle_beta  96.3213
_cell_angle_gamma 119.438
_cell_volume      35783.6

_symmetry_cell_setting          triclinic
_symmetry_space_group_name_Hall 'P 1'
_symmetry_space_group_name_H-M  'P 1'
_symmetry_Int_Tables_number     1

_symmetry_equiv_pos_as_xyz 'x,y,z'

loop_
_atom_site_label
_atom_site_type_symbol
_atom_site_fract_x
_atom_site_fract_y
_atom_site_fract_z
_atom_site_charge
C1       C      0.209870000000     0.135200000000     0.020770000000     0.395424   
C2       C      0.001320000000     0.019290000000     0.854110000000     0.388783   
C3       C      0.072520000000     0.159620000000     0.989950000000     0.394245   
C4       C      0.132790000000     0.993300000000     0.886450000000     0.393883   
C5       C      0.048570000000     0.880570000000     0.963620000000     0.397285   
C6       C      0.981580000000     0.041780000000     0.069400000000     0.399578   
C7       C      0.904510000000     0.904160000000     0.932060000000     0.398431   
C8       C      0.094510000000     0.010500000000     0.103270000000     0.392827   
C9       C      0.110300000000     0.918460000000     0.458330000000     0.397488   
C10      C      0.856590000000     0.944480000000     0.454140000000     0.390051   
C11      C      0.055590000000     0.985640000000     0.360440000000     0.387849   
C12      C      0.906650000000     0.869480000000     0.550140000000     0.385664   
C13      C      0.001130000000     0.009650000000     0.600050000000     0.383509   
C14      C      0.152560000000     0.123060000000     0.420650000000     0.389837   
C15      C      0.935700000000     0.065320000000     0.497170000000     0.399446   
C16      C      0.199920000000     0.051520000000     0.505940000000     0.386317   
C17      C      0.159470000000     0.449420000000     0.997060000000     0.396711   
C18      C      0.908840000000     0.465300000000     0.032870000000     0.393638   
C19      C      0.025170000000     0.380920000000     0.949020000000     0.392969   
C20      C      0.068100000000     0.537320000000     0.104370000000     0.393439   
C21      C      0.104550000000     0.663710000000     0.014140000000     0.390565   
C22      C      0.076420000000     0.526650000000     0.854050000000     0.393806   
C23      C      0.962050000000     0.592010000000     0.961040000000     0.392943   
C24      C      0.213880000000     0.579180000000     0.921830000000     0.388695   
C25      C      0.018230000000     0.355010000000     0.487330000000     0.390104   
C26      C      0.911270000000     0.515850000000     0.535130000000     0.394829   
C27      C      0.891540000000     0.356060000000     0.434010000000     0.397617   
C28      C      0.049870000000     0.514280000000     0.596040000000     0.389371   
C29      C      0.150180000000     0.632420000000     0.509010000000     0.394214   
C30      C      0.985750000000     0.472560000000     0.345420000000     0.394587   
C31      C      0.011640000000     0.630080000000     0.454290000000     0.38927    
C32      C      0.129140000000     0.477030000000     0.403420000000     0.390968   
C33      C      0.418240000000     0.039470000000     0.963850000000     0.395953   
C34      C      0.590960000000     0.941070000000     0.899340000000     0.394223   
C35      C      0.400600000000     0.906470000000     0.998330000000     0.389477   
C36      C      0.597750000000     0.076350000000     0.851780000000     0.383306   
C37      C      0.724340000000     0.144810000000     0.951860000000     0.387035   
C38      C      0.527450000000     0.972990000000     0.097820000000     0.388838   
C39      C      0.704590000000     0.006020000000     0.984400000000     0.393754   
C40      C      0.535390000000     0.106460000000     0.054630000000     0.389665   
C41      C      0.620270000000     0.157310000000     0.455180000000     0.396254   
C42      C      0.358500000000     0.915430000000     0.440730000000     0.396345   
C43      C      0.506710000000     0.110240000000     0.521450000000     0.397758   
C44      C      0.507230000000     0.976900000000     0.353220000000     0.391555   
C45      C      0.552500000000     0.895780000000     0.424180000000     0.395387   
C46      C      0.566930000000     0.021690000000     0.602060000000     0.389116   
C47      C      0.431470000000     0.844000000000     0.498500000000     0.391903   
C48      C      0.697930000000     0.082790000000     0.516080000000     0.390369   
C49      C      0.560510000000     0.383650000000     0.003370000000     0.385407   
C50      C      0.458580000000     0.564180000000     0.025860000000     0.395689   
C51      C      0.425780000000     0.392140000000     0.933300000000     0.392415   
C52      C      0.603660000000     0.559400000000     0.097680000000     0.39594    
C53      C      0.700330000000     0.652240000000     0.022140000000     0.396386   
C54      C      0.549940000000     0.500360000000     0.852470000000     0.392897   
C55      C      0.562660000000     0.662290000000     0.949960000000     0.388638   
C56      C      0.667970000000     0.484010000000     0.924770000000     0.391139   
C57      C      0.531880000000     0.367590000000     0.471210000000     0.39498    
C58      C      0.385250000000     0.499570000000     0.512980000000     0.394202   
C59      C      0.426020000000     0.394810000000     0.388680000000     0.391544   
C60      C      0.496480000000     0.476790000000     0.597440000000     0.390467   
C61      C      0.625300000000     0.604480000000     0.558150000000     0.392603   
C62      C      0.551030000000     0.526060000000     0.346970000000     0.391206   
C63      C      0.517620000000     0.636190000000     0.473900000000     0.390676   
C64      C      0.664840000000     0.509800000000     0.425610000000     0.397876   
C65      C      0.533110000000     0.452560000000     0.765380000000     0.0106484  
C66      C      0.505780000000     0.406270000000     0.715750000000    -0.0443524  
C67      C      0.481610000000     0.429780000000     0.654630000000    -0.0257149  
C68      C      0.498800000000     0.438130000000     0.693300000000     0.0124407  
C69      C      0.474330000000     0.499020000000     0.649100000000    -0.0256527  
C70      C      0.498760000000     0.508680000000     0.685770000000     0.0146617  
C71      C      0.522420000000     0.413280000000     0.751370000000    -0.0432905  
C72      C      0.507820000000     0.477160000000     0.707240000000    -0.00735515 
C73      C      0.509910000000     0.548200000000     0.699470000000    -0.0439252  
C74      C      0.531120000000     0.557030000000     0.733820000000    -0.0437763  
C75      C      0.565480000000     0.537100000000     0.791710000000    -0.0251599  
C76      C      0.539310000000     0.525590000000     0.755830000000     0.0118465  
C77      C      0.550510000000     0.458670000000     0.804320000000    -0.024338   
C78      C      0.526830000000     0.485120000000     0.743010000000    -0.00617075 
C79      C      0.601900000000     0.596790000000     0.182900000000     0.0116617  
C80      C      0.566750000000     0.610620000000     0.230610000000    -0.0436357  
C81      C      0.545660000000     0.563450000000     0.288430000000    -0.0247839  
C82      C      0.566050000000     0.574470000000     0.252000000000     0.0116346  
C83      C      0.556570000000     0.495320000000     0.293870000000    -0.0252288  
C84      C      0.581320000000     0.511650000000     0.259150000000     0.013397   
C85      C      0.584410000000     0.621630000000     0.196490000000    -0.0435764  
C86      C      0.583100000000     0.548890000000     0.238700000000    -0.00650553 
C87      C      0.599440000000     0.487100000000     0.245780000000    -0.0437499  
C88      C      0.619690000000     0.499510000000     0.212590000000    -0.042819   
C89      C      0.643130000000     0.549180000000     0.155910000000    -0.0238641  
C90      C      0.620560000000     0.535770000000     0.191460000000     0.0129065  
C91      C      0.619260000000     0.608510000000     0.145320000000    -0.024126   
C92      C      0.602220000000     0.560710000000     0.204300000000    -0.00632291 
C93      C      0.417190000000     0.753370000000     0.465650000000     0.0148845  
C94      C      0.447860000000     0.726530000000     0.424010000000    -0.0437324  
C95      C      0.507630000000     0.698530000000     0.443390000000    -0.0240077  
C96      C      0.475640000000     0.716980000000     0.451740000000     0.00955204 
C97      C      0.534360000000     0.698080000000     0.508530000000    -0.0255635  
C98      C      0.502680000000     0.717360000000     0.515140000000     0.0118108  
C99      C      0.418540000000     0.744130000000     0.430950000000    -0.0423623  
C100     C      0.474940000000     0.726470000000     0.486850000000    -0.00725425 
C101     C      0.502410000000     0.727980000000     0.549660000000    -0.0439704  
C102     C      0.474050000000     0.746560000000     0.556510000000    -0.0447188  
C103     C      0.414960000000     0.775430000000     0.536620000000    -0.0271695  
C104     C      0.445900000000     0.755540000000     0.528870000000     0.0132454  
C105     C      0.384820000000     0.771530000000     0.473280000000    -0.0242939  
C106     C      0.445740000000     0.744970000000     0.493840000000    -0.0102652  
C107     C      0.605970000000     0.246450000000     0.421660000000     0.0115843  
C108     C      0.550730000000     0.274520000000     0.398080000000    -0.0445031  
C109     C      0.518060000000     0.306600000000     0.436550000000    -0.0251074  
C110     C      0.549380000000     0.286170000000     0.431950000000     0.0109562  
C111     C      0.540260000000     0.304890000000     0.502540000000    -0.0234677  
C112     C      0.573660000000     0.287280000000     0.495880000000     0.00870681 
C113     C      0.578870000000     0.255050000000     0.392950000000    -0.0450903  
C114     C      0.575770000000     0.277130000000     0.461350000000    -0.00762051 
C115     C      0.600270000000     0.278030000000     0.524720000000    -0.0435519  
C116     C      0.629460000000     0.259640000000     0.519490000000    -0.0427904  
C117     C      0.664340000000     0.230610000000     0.479590000000    -0.0240197  
C118     C      0.631570000000     0.249030000000     0.485480000000     0.0153419  
C119     C      0.636060000000     0.224970000000     0.415820000000    -0.0241656  
C120     C      0.604760000000     0.257730000000     0.456110000000    -0.00936955 
C121     C      0.554370000000     0.059550000000     0.759580000000     0.0136585  
C122     C      0.502640000000     0.013180000000     0.712780000000    -0.0431278  
C123     C      0.539850000000     0.999110000000     0.663250000000    -0.0227462  
C124     C      0.544200000000     0.023170000000     0.694890000000     0.0109839  
C125     C      0.627490000000     0.059010000000     0.650370000000    -0.0253493  
C126     C      0.632380000000     0.066140000000     0.689710000000     0.0107514  
C127     C      0.507640000000     0.032670000000     0.744140000000    -0.0455549  
C128     C      0.590850000000     0.052080000000     0.709130000000    -0.00589639 
C129     C      0.679020000000     0.090920000000     0.706230000000    -0.043495   
C130     C      0.684170000000     0.101220000000     0.741600000000    -0.0440652  
C131     C      0.649100000000     0.098730000000     0.799520000000    -0.0267685  
C132     C      0.642810000000     0.089490000000     0.760470000000     0.0115573  
C133     C      0.560720000000     0.083030000000     0.791990000000    -0.0279769  
C134     C      0.596030000000     0.067040000000     0.743250000000    -0.00800084 
C135     C      0.556870000000     0.977580000000     0.267010000000     0.00983641 
C136     C      0.602140000000     0.985650000000     0.216010000000    -0.0448706  
C137     C      0.559010000000     0.957650000000     0.157180000000    -0.0259809  
C138     C      0.558630000000     0.968120000000     0.194410000000     0.0139727  
C139     C      0.470960000000     0.943760000000     0.146860000000    -0.0258221  
C140     C      0.470490000000     0.940310000000     0.187250000000     0.0114987  
C141     C      0.601390000000     0.991580000000     0.251660000000    -0.043441   
C142     C      0.514010000000     0.955470000000     0.209060000000    -0.00753349 
C143     C      0.425720000000     0.923370000000     0.203220000000    -0.0439767  
C144     C      0.424220000000     0.921380000000     0.240280000000    -0.0432984  
C145     C      0.465930000000     0.932180000000     0.302160000000    -0.023433   
C146     C      0.467690000000     0.938780000000     0.261990000000     0.0118476  
C147     C      0.557900000000     0.987100000000     0.304960000000    -0.0235538  
C148     C      0.512800000000     0.957420000000     0.246180000000    -0.00582252 
C149     C      0.555860000000     0.835420000000     0.875020000000     0.0157794  
C150     C      0.504770000000     0.755940000000     0.875520000000    -0.0430504  
C151     C      0.523910000000     0.702890000000     0.915860000000    -0.0262404  
C152     C      0.534830000000     0.749500000000     0.903190000000     0.0127093  
C153     C      0.585830000000     0.736010000000     0.967550000000    -0.0241256  
C154     C      0.602760000000     0.780880000000     0.947670000000     0.013065   
C155     C      0.514730000000     0.798390000000     0.861970000000    -0.0431943  
C156     C      0.574970000000     0.786410000000     0.917740000000    -0.00517745 
C157     C      0.643780000000     0.818000000000     0.960870000000    -0.0438116  
C158     C      0.658550000000     0.860030000000     0.943580000000    -0.0442105  
C159     C      0.646390000000     0.911390000000     0.894970000000    -0.0258516  
C160     C      0.630410000000     0.866230000000     0.914340000000     0.0154186  
C161     C      0.565990000000     0.881100000000     0.859840000000    -0.0227545  
C162     C      0.587280000000     0.829510000000     0.902190000000    -0.00555485 
C163     C      0.570850000000     0.212020000000     0.078730000000     0.0149701  
C164     C      0.621340000000     0.291640000000     0.076870000000    -0.0435403  
C165     C      0.599500000000     0.343470000000     0.037370000000    -0.0264601  
C166     C      0.589740000000     0.297220000000     0.050080000000     0.0115721  
C167     C      0.535450000000     0.308970000000     0.986990000000    -0.0237599  
C168     C      0.519690000000     0.264510000000     0.007450000000     0.0118119  
C169     C      0.612430000000     0.249530000000     0.090630000000    -0.0434537  
C170     C      0.549090000000     0.259820000000     0.036600000000    -0.00548202 
C171     C      0.478170000000     0.226850000000     0.995420000000    -0.0436609  
C172     C      0.464610000000     0.185180000000     0.013070000000    -0.0461116  
C173     C      0.479770000000     0.135200000000     0.061450000000    -0.0273148  
C174     C      0.494370000000     0.179880000000     0.041540000000     0.0124245  
C175     C      0.561830000000     0.166710000000     0.094180000000    -0.0231384  
C176     C      0.537910000000     0.217080000000     0.052470000000    -0.00628064 
C177     C      0.800470000000     0.263720000000     0.471260000000     0.0162314  
C178     C      0.771690000000     0.224070000000     0.528510000000    -0.0440134  
C179     C      0.763240000000     0.148340000000     0.544410000000    -0.0249099  
C180     C      0.777240000000     0.189190000000     0.519320000000     0.0172492  
C181     C      0.783900000000     0.114730000000     0.499850000000    -0.0288343  
C182     C      0.801130000000     0.157260000000     0.475910000000     0.0129843  
C183     C      0.782540000000     0.260890000000     0.504350000000    -0.043275   
C184     C      0.797260000000     0.192740000000     0.486540000000    -0.0077999  
C185     C      0.821740000000     0.162260000000     0.443380000000    -0.0437242  
C186     C      0.840600000000     0.202490000000     0.422440000000    -0.0427452  
C187     C      0.859350000000     0.282220000000     0.410350000000    -0.02525    
C188     C      0.836600000000     0.237800000000     0.432470000000     0.0122904  
C189     C      0.806040000000     0.299180000000     0.442560000000    -0.0234189  
C190     C      0.811720000000     0.231600000000     0.463480000000    -0.00613833 
C191     C      0.209130000000     0.751270000000     0.516490000000     0.0115952  
C192     C      0.228230000000     0.828130000000     0.511150000000    -0.0441126  
C193     C      0.272630000000     0.881320000000     0.458740000000    -0.0257823  
C194     C      0.251330000000     0.836100000000     0.479170000000     0.0123524  
C195     C      0.292790000000     0.850870000000     0.411130000000    -0.0240683  
C196     C      0.275860000000     0.807680000000     0.433450000000     0.0169824  
C197     C      0.206080000000     0.785900000000     0.528970000000    -0.0426652  
C198     C      0.253910000000     0.801280000000     0.465920000000    -0.00634232 
C199     C      0.280240000000     0.773310000000     0.421730000000    -0.0446581  
C200     C      0.266140000000     0.733920000000     0.443190000000    -0.0453267  
C201     C      0.236450000000     0.689090000000     0.501970000000    -0.0247266  
C202     C      0.245380000000     0.727760000000     0.475790000000     0.0139358  
C203     C      0.182930000000     0.704880000000     0.535210000000    -0.0254404  
C204     C      0.235890000000     0.759950000000     0.486010000000    -0.00657961 
C205     C      0.844580000000     0.562150000000     0.507860000000     0.0109318  
C206     C      0.821290000000     0.596460000000     0.455020000000    -0.0476689  
C207     C      0.751830000000     0.551770000000     0.411830000000    -0.0228502  
C208     C      0.783580000000     0.555170000000     0.445590000000     0.0111958  
C209     C      0.710000000000     0.470390000000     0.422170000000    -0.0284468  
C210     C      0.739920000000     0.474380000000     0.457150000000     0.0139967  
C211     C      0.851610000000     0.599900000000     0.485760000000    -0.0449888  
C212     C      0.776480000000     0.516550000000     0.467090000000    -0.00912723 
C213     C      0.732540000000     0.436620000000     0.479420000000    -0.043579   
C214     C      0.760520000000     0.440330000000     0.511480000000    -0.0410444  
C215     C      0.828530000000     0.486100000000     0.555440000000    -0.0231487  
C216     C      0.797380000000     0.481760000000     0.521290000000     0.0153645  
C217     C      0.879060000000     0.565900000000     0.540400000000    -0.0261143  
C218     C      0.805910000000     0.520210000000     0.498990000000    -0.00927494 
C219     C      0.307580000000     0.532140000000     0.477000000000     0.0176513  
C220     C      0.282010000000     0.560020000000     0.421260000000    -0.0430057  
C221     C      0.211490000000     0.509100000000     0.381330000000    -0.0241142  
C222     C      0.245200000000     0.517250000000     0.414550000000     0.0133463  
C223     C      0.165920000000     0.429910000000     0.400580000000    -0.0289269  
C224     C      0.201500000000     0.437820000000     0.433010000000     0.00943976 
C225     C      0.312590000000     0.567440000000     0.452340000000    -0.0442731  
C226     C      0.239570000000     0.481140000000     0.438960000000    -0.00865523 
C227     C      0.197010000000     0.402440000000     0.457300000000    -0.0445495  
C228     C      0.228860000000     0.409660000000     0.487620000000    -0.0445295  
C229     C      0.298900000000     0.459890000000     0.527770000000    -0.0216249  
C230     C      0.266030000000     0.452370000000     0.494190000000     0.0177202  
C231     C      0.340670000000     0.540480000000     0.510840000000    -0.0270219  
C232     C      0.271150000000     0.488590000000     0.470170000000    -0.00579004 
C233     C      0.100070000000     0.508430000000     0.766070000000     0.0115669  
C234     C      0.091820000000     0.468340000000     0.715640000000    -0.0439752  
C235     C      0.055960000000     0.481160000000     0.655990000000    -0.0242928  
C236     C      0.074420000000     0.493550000000     0.693390000000     0.0117816  
C237     C      0.040780000000     0.547460000000     0.645990000000    -0.024755   
C238     C      0.053950000000     0.553200000000     0.685210000000     0.0111005  
C239     C      0.105240000000     0.476160000000     0.751420000000    -0.0438343  
C240     C      0.070230000000     0.526870000000     0.707330000000    -0.00660906 
C241     C      0.048800000000     0.585470000000     0.699930000000    -0.0435959  
C242     C      0.059590000000     0.591700000000     0.736130000000    -0.044501   
C243     C      0.086650000000     0.573220000000     0.797590000000    -0.0265986  
C244     C      0.075670000000     0.565690000000     0.758560000000     0.0124298  
C245     C      0.114080000000     0.515670000000     0.805020000000    -0.0241578  
C246     C      0.082330000000     0.533870000000     0.744140000000    -0.00708248 
C247     C      0.025390000000     0.546300000000     0.188010000000     0.00586324 
C248     C      0.970050000000     0.539910000000     0.231220000000    -0.0464664  
C249     C      0.951220000000     0.487020000000     0.286150000000    -0.0252601  
C250     C      0.977630000000     0.507510000000     0.252160000000     0.0194115  
C251     C      0.987050000000     0.436170000000     0.293560000000    -0.0172797  
C252     C      0.015460000000     0.459810000000     0.260790000000     0.0105537  
C253     C      0.993630000000     0.559060000000     0.199510000000    -0.0363306  
C254     C      0.008660000000     0.493510000000     0.240670000000    -0.0112296  
C255     C      0.047550000000     0.447310000000     0.249490000000    -0.0426984  
C256     C      0.073620000000     0.468580000000     0.219030000000    -0.0434697  
C257     C      0.096620000000     0.525480000000     0.166480000000    -0.0250315  
C258     C      0.066720000000     0.501610000000     0.198440000000     0.0119     
C259     C      0.049660000000     0.567240000000     0.153190000000    -0.0225474  
C260     C      0.033790000000     0.513960000000     0.208940000000    -0.00374906 
C261     C      0.952570000000     0.280640000000     0.978050000000     0.0208859  
C262     C      0.877540000000     0.242910000000     0.009290000000    -0.0458469  
C263     C      0.795550000000     0.209340000000     0.975500000000    -0.0228006  
C264     C      0.850200000000     0.229020000000     0.977000000000     0.0083009  
C265     C      0.794560000000     0.186250000000     0.913400000000    -0.0248038  
C266     C      0.847540000000     0.222870000000     0.913330000000     0.00853834 
C267     C      0.928490000000     0.267340000000     0.009960000000    -0.0475233  
C268     C      0.874230000000     0.239680000000     0.945220000000    -0.00600453 
C269     C      0.871750000000     0.237640000000     0.881230000000    -0.0424387  
C270     C      0.921530000000     0.269120000000     0.880740000000    -0.0466377  
C271     C      0.002860000000     0.319910000000     0.911880000000    -0.0316283  
C272     C      0.948850000000     0.285110000000     0.912560000000     0.0144334  
C273     C      0.007150000000     0.308550000000     0.978040000000    -0.0269972  
C274     C      0.925470000000     0.268260000000     0.945280000000    -0.0134377  
C275     C      0.172550000000     0.763650000000     0.981360000000     0.0169903  
C276     C      0.244080000000     0.803680000000     0.946380000000    -0.0455928  
C277     C      0.328470000000     0.841740000000     0.975990000000    -0.0235463  
C278     C      0.273830000000     0.819480000000     0.977420000000     0.0118557  
C279     C      0.333220000000     0.865170000000     0.038820000000    -0.024644   
C280     C      0.281510000000     0.826910000000     0.041260000000     0.00963749 
C281     C      0.193600000000     0.777060000000     0.948210000000    -0.0443498  
C282     C      0.252660000000     0.808480000000     0.010500000000    -0.00688043 
C283     C      0.260420000000     0.812350000000     0.074580000000    -0.0435557  
C284     C      0.211500000000     0.779510000000     0.077390000000    -0.0446857  
C285     C      0.128770000000     0.725910000000     0.050070000000    -0.0252117  
C286     C      0.181920000000     0.761780000000     0.046770000000     0.0108947  
C287     C      0.118540000000     0.733990000000     0.983820000000    -0.0214952  
C288     C      0.202110000000     0.778100000000     0.012890000000    -0.00728586 
C289     C      0.726350000000     0.422000000000     0.948710000000     0.00986357 
C290     C      0.750600000000     0.375640000000     0.989990000000    -0.0433262  
C291     C      0.820690000000     0.408250000000     0.037050000000    -0.0243819  
C292     C      0.786970000000     0.412750000000     0.006700000000     0.0116797  
C293     C      0.848790000000     0.485350000000     0.048830000000    -0.0242491  
C294     C      0.822420000000     0.491480000000     0.014700000000     0.0139592  
C295     C      0.719720000000     0.380110000000     0.961920000000    -0.0441107  
C296     C      0.791310000000     0.454530000000     0.995420000000    -0.00705649 
C297     C      0.827440000000     0.532850000000     0.002270000000    -0.0399915  
C298     C      0.806480000000     0.538750000000     0.968890000000    -0.0357299  
C299     C      0.752620000000     0.506640000000     0.913580000000    -0.0225098  
C300     C      0.775760000000     0.502230000000     0.949590000000     0.0162235  
C301     C      0.692010000000     0.427040000000     0.918750000000    -0.0277765  
C302     C      0.764540000000     0.459560000000     0.964400000000    -0.00983256 
C303     C      0.301210000000     0.554220000000     0.937780000000     0.0121687  
C304     C      0.318080000000     0.507900000000     0.984000000000    -0.0375921  
C305     C      0.374290000000     0.541520000000     0.037950000000    -0.0212945  
C306     C      0.350030000000     0.545050000000     0.002250000000     0.0158394  
C307     C      0.434600000000     0.621240000000     0.031460000000    -0.0267014  
C308     C      0.399490000000     0.625450000000     0.001760000000     0.010499   
C309     C      0.295660000000     0.512860000000     0.951020000000    -0.0412375  
C310     C      0.360810000000     0.587420000000     0.986920000000    -0.00826038 
C311     C      0.405320000000     0.667020000000     0.988380000000    -0.043605   
C312     C      0.373360000000     0.670760000000     0.960860000000    -0.043351   
C313     C      0.301400000000     0.636890000000     0.915390000000    -0.0258486  
C314     C      0.336590000000     0.633210000000     0.944900000000     0.0120925  
C315     C      0.273360000000     0.559580000000     0.904240000000    -0.0250534  
C316     C      0.332930000000     0.591700000000     0.956340000000    -0.00918647 
C317     C      0.783040000000     0.792590000000     0.582870000000     0.0103319  
C318     C      0.694300000000     0.751380000000     0.586010000000    -0.0446638  
C319     C      0.647400000000     0.668060000000     0.593020000000    -0.0250503  
C320     C      0.695040000000     0.711310000000     0.589160000000     0.0105549  
C321     C      0.696970000000     0.629030000000     0.601230000000    -0.0243211  
C322     C      0.742610000000     0.672140000000     0.594160000000     0.0146104  
C323     C      0.737740000000     0.791480000000     0.583050000000    -0.0437566  
C324     C      0.740590000000     0.711920000000     0.589770000000    -0.00804952 
C325     C      0.787740000000     0.673070000000     0.594670000000    -0.0446662  
C326     C      0.830720000000     0.713050000000     0.590180000000    -0.0438939  
C327     C      0.877480000000     0.795500000000     0.581860000000    -0.0259077  
C328     C      0.829680000000     0.753050000000     0.585510000000     0.010892   
C329     C      0.829440000000     0.836530000000     0.581010000000    -0.0244969  
C330     C      0.784660000000     0.752770000000     0.585940000000    -0.00660831 
C331     C      0.280790000000     0.205280000000     0.393340000000     0.00921598 
C332     C      0.366200000000     0.247700000000     0.377950000000    -0.044746   
C333     C      0.405700000000     0.329050000000     0.357680000000    -0.0256033  
C334     C      0.361790000000     0.285860000000     0.369820000000     0.0123884  
C335     C      0.351580000000     0.363200000000     0.348570000000    -0.0243512  
C336     C      0.310010000000     0.321150000000     0.363540000000     0.0154306  
C337     C      0.326130000000     0.207900000000     0.389340000000    -0.0427522  
C338     C      0.315860000000     0.283460000000     0.372570000000    -0.00932267 
C339     C      0.265000000000     0.318840000000     0.367320000000    -0.0454993  
C340     C      0.226430000000     0.279940000000     0.381290000000    -0.0433359  
C341     C      0.191250000000     0.203100000000     0.409860000000    -0.0230381  
C342     C      0.231420000000     0.242090000000     0.390460000000     0.00908125 
C343     C      0.238630000000     0.161160000000     0.405410000000    -0.0237877  
C344     C      0.275730000000     0.243300000000     0.385440000000    -0.00579066 
C345     C      0.723520000000     0.896800000000     0.465570000000     0.0113772  
C346     C      0.640070000000     0.848670000000     0.483240000000    -0.0457403  
C347     C      0.567650000000     0.834320000000     0.439970000000    -0.0252437  
C348     C      0.621990000000     0.855310000000     0.448860000000     0.0183813  
C349     C      0.582560000000     0.872600000000     0.379400000000    -0.0249488  
C350     C      0.637020000000     0.890570000000     0.387770000000     0.0171268  
C351     C      0.690370000000     0.870020000000     0.491720000000    -0.04297    
C352     C      0.654840000000     0.881890000000     0.422170000000    -0.00272351 
C353     C      0.670090000000     0.915620000000     0.361340000000    -0.0426763  
C354     C      0.720340000000     0.932660000000     0.368960000000    -0.0413781  
C355     C      0.793270000000     0.943680000000     0.409720000000    -0.0252208  
C356     C      0.738720000000     0.925810000000     0.403330000000     0.0126861  
C357     C      0.776920000000     0.923790000000     0.476270000000    -0.0236615  
C358     C      0.705990000000     0.901370000000     0.430360000000    -0.00362138 
C359     C      0.331160000000     0.101220000000     0.487330000000     0.0104003  
C360     C      0.410770000000     0.146560000000     0.462390000000    -0.0434531  
C361     C      0.488530000000     0.169530000000     0.501180000000    -0.0239031  
C362     C      0.433680000000     0.146710000000     0.496280000000     0.0207643  
C363     C      0.483500000000     0.141550000000     0.564700000000    -0.0269721  
C364     C      0.428230000000     0.122710000000     0.560280000000     0.0149991  
C365     C      0.359940000000     0.122980000000     0.457840000000    -0.044851   
C366     C      0.405320000000     0.125030000000     0.526240000000    -0.00522584 
C367     C      0.399350000000     0.102870000000     0.589830000000    -0.0432091  
C368     C      0.348430000000     0.084630000000     0.585680000000    -0.0416199  
C369     C      0.269980000000     0.065990000000     0.548830000000    -0.0252315  
C370     C      0.325050000000     0.084650000000     0.551780000000     0.0119187  
C371     C      0.277410000000     0.070890000000     0.481210000000    -0.0237714  
C372     C      0.353550000000     0.103870000000     0.521810000000    -0.00370989 
C373     C      0.113220000000     0.825940000000     0.483560000000     0.0167669  
C374     C      0.066330000000     0.754430000000     0.515180000000    -0.0447172  
C375     C      0.007420000000     0.688230000000     0.482500000000    -0.0293265  
C376     C      0.046770000000     0.735460000000     0.482700000000     0.0176042  
C377     C      0.010130000000     0.693020000000     0.415940000000    -0.0308712  
C378     C      0.043030000000     0.742470000000     0.417270000000     0.0139236  
C379     C      0.099950000000     0.799160000000     0.515590000000    -0.0427927  
C380     C      0.060970000000     0.761640000000     0.450150000000    -0.00689921 
C381     C      0.055550000000     0.769790000000     0.385300000000    -0.0443628  
C382     C      0.085660000000     0.815420000000     0.385710000000    -0.0429436  
C383     C      0.136250000000     0.884610000000     0.418220000000    -0.0243297  
C384     C      0.104360000000     0.834860000000     0.418100000000     0.0124294  
C385     C      0.148350000000     0.874350000000     0.484160000000    -0.0210476  
C386     C      0.093330000000     0.807580000000     0.450560000000    -0.00319654 
C387     C      0.923870000000     0.152460000000     0.465580000000     0.0150188  
C388     C      0.965900000000     0.222830000000     0.431280000000    -0.0462863  
C389     C      0.016610000000     0.293420000000     0.460500000000    -0.0297425  
C390     C      0.982000000000     0.244650000000     0.462720000000     0.0210581  
C391     C      0.014610000000     0.291570000000     0.527340000000    -0.0348388  
C392     C      0.984470000000     0.241790000000     0.527880000000     0.020052   
C393     C      0.936560000000     0.177230000000     0.432660000000    -0.0424695  
C394     C      0.969070000000     0.220270000000     0.496070000000    -0.00831605 
C395     C      0.972800000000     0.216480000000     0.560830000000    -0.0460266  
C396     C      0.946310000000     0.170440000000     0.562440000000    -0.0415553  
C397     C      0.903820000000     0.098320000000     0.533330000000    -0.0247899  
C398     C      0.930670000000     0.148490000000     0.531120000000     0.0101736  
C399     C      0.892440000000     0.103290000000     0.467010000000    -0.020823   
C400     C      0.940670000000     0.173610000000     0.497610000000    -0.00248316 
C401     C      0.948870000000     0.980670000000     0.763210000000     0.0106848  
C402     C      0.916800000000     0.944210000000     0.708200000000    -0.0434027  
C403     C      0.944790000000     0.985750000000     0.648280000000    -0.023825   
C404     C      0.949220000000     0.982640000000     0.688430000000     0.0128376  
C405     C      0.027470000000     0.056730000000     0.649410000000    -0.0268954  
C406     C      0.016940000000     0.057910000000     0.687150000000     0.0080406  
C407     C      0.917720000000     0.942860000000     0.745330000000    -0.0426227  
C408     C      0.981910000000     0.020150000000     0.706150000000    -0.00436129 
C409     C      0.045410000000     0.096720000000     0.704440000000    -0.0450955  
C410     C      0.039240000000     0.097950000000     0.740190000000    -0.0412782  
C411     C      0.997530000000     0.061480000000     0.797730000000    -0.0146836  
C412     C      0.006740000000     0.059600000000     0.759970000000     0.00299557 
C413     C      0.950560000000     0.977630000000     0.803550000000    -0.0241601  
C414     C      0.979250000000     0.020140000000     0.743310000000    -0.000883495
C415     C      0.064110000000     0.959570000000     0.195000000000     0.0104822  
C416     C      0.015360000000     0.917540000000     0.245710000000    -0.0504758  
C417     C      0.028620000000     0.949750000000     0.304340000000    -0.0304963  
C418     C      0.043790000000     0.952630000000     0.267070000000     0.0143167  
C419     C      0.115000000000     0.015410000000     0.313910000000    -0.0249817  
C420     C      0.115160000000     0.024650000000     0.273980000000     0.0126848  
C421     C      0.026390000000     0.920430000000     0.210370000000    -0.041      
C422     C      0.083040000000     0.991170000000     0.252260000000    -0.00858107 
C423     C      0.152090000000     0.064190000000     0.258420000000    -0.0440609  
C424     C      0.156500000000     0.070500000000     0.221520000000    -0.0432563  
C425     C      0.130700000000     0.045020000000     0.159630000000    -0.0252347  
C426     C      0.126270000000     0.036370000000     0.199680000000     0.0112379  
C427     C      0.079260000000     0.961170000000     0.158270000000    -0.022658   
C428     C      0.090900000000     0.995820000000     0.215380000000    -0.00514875 
C429     C      0.807890000000     0.731890000000     0.998100000000     0.0126174  
C430     C      0.855610000000     0.763900000000     0.945540000000    -0.0452782  
C431     C      0.858790000000     0.830990000000     0.908910000000    -0.0266558  
C432     C      0.841220000000     0.796460000000     0.940160000000     0.0121189  
C433     C      0.814090000000     0.865240000000     0.929120000000    -0.0229788  
C434     C      0.795760000000     0.830110000000     0.959700000000     0.0163703  
C435     C      0.839550000000     0.732190000000     0.974520000000    -0.0453179  
C436     C      0.809450000000     0.796700000000     0.963930000000    -0.0077248  
C437     C      0.764450000000     0.829910000000     0.983460000000    -0.0406536  
C438     C      0.745840000000     0.796510000000     0.011030000000    -0.0434572  
C439     C      0.737080000000     0.726160000000     0.044890000000    -0.0262806  
C440     C      0.758520000000     0.762890000000     0.015490000000     0.0132495  
C441     C      0.790120000000     0.697690000000     0.029280000000    -0.0257585  
C442     C      0.792100000000     0.763860000000     0.992690000000    -0.00827905 
C443     C      0.321790000000     0.210640000000     0.994730000000     0.0149294  
C444     C      0.375430000000     0.244820000000     0.945400000000    -0.0442063  
C445     C      0.389120000000     0.317090000000     0.912480000000    -0.0261204  
C446     C      0.364530000000     0.279540000000     0.940820000000     0.0138044  
C447     C      0.335760000000     0.346470000000     0.926020000000    -0.0259053  
C448     C      0.315780000000     0.311850000000     0.956680000000     0.0148038  
C449     C      0.354240000000     0.210680000000     0.972080000000    -0.0415635  
C450     C      0.329760000000     0.278720000000     0.962340000000    -0.00819209 
C451     C      0.282090000000     0.311170000000     0.978550000000    -0.0440914  
C452     C      0.262810000000     0.278290000000     0.006440000000    -0.0439329  
C453     C      0.254930000000     0.209290000000     0.042590000000    -0.0258928  
C454     C      0.275770000000     0.244800000000     0.012280000000     0.0131378  
C455     C      0.300320000000     0.174360000000     0.024140000000    -0.0224182  
C456     C      0.309260000000     0.244760000000     0.990020000000    -0.00699817 
C457     C      0.910010000000     0.079130000000     0.054340000000     0.0103638  
C458     C      0.871720000000     0.094950000000     0.999290000000    -0.0474782  
C459     C      0.791820000000     0.036840000000     0.972630000000    -0.0253843  
C460     C      0.831420000000     0.052260000000     0.002290000000     0.0078536  
C461     C      0.747610000000     0.964050000000     0.008110000000    -0.0229286  
C462     C      0.789540000000     0.979630000000     0.035770000000     0.0113478  
C463     C      0.910370000000     0.108440000000     0.025280000000    -0.0488459  
C464     C      0.829840000000     0.022700000000     0.031980000000    -0.00717909 
C465     C      0.790000000000     0.949880000000     0.064180000000    -0.0413925  
C466     C      0.830070000000     0.962250000000     0.088680000000    -0.0417383  
C467     C      0.915460000000     0.016420000000     0.109880000000    -0.0235447  
C468     C      0.870370000000     0.004640000000     0.085250000000     0.019408   
C469     C      0.953870000000     0.091840000000     0.080720000000    -0.0287913  
C470     C      0.869690000000     0.035850000000     0.057680000000    -0.00622603 
C471     C      0.207220000000     0.959070000000     0.900950000000     0.0137797  
C472     C      0.250160000000     0.947020000000     0.954910000000    -0.0466279  
C473     C      0.331460000000     0.007450000000     0.977550000000    -0.0246449  
C474     C      0.289490000000     0.989990000000     0.949790000000     0.0107166  
C475     C      0.372260000000     0.078300000000     0.938800000000    -0.022994   
C476     C      0.327560000000     0.060960000000     0.913570000000     0.0123676  
C477     C      0.209680000000     0.931520000000     0.930500000000    -0.0452692  
C478     C      0.288130000000     0.017800000000     0.919640000000    -0.00647386 
C479     C      0.324280000000     0.088950000000     0.884700000000    -0.0409431  
C480     C      0.282400000000     0.074660000000     0.861860000000    -0.041284   
C481     C      0.196490000000     0.018000000000     0.844180000000    -0.0236748  
C482     C      0.243100000000     0.032040000000     0.867410000000     0.0203484  
C483     C      0.161700000000     0.943990000000     0.876040000000    -0.0270876  
C484     C      0.246430000000     0.002630000000     0.895570000000    -0.00440584 
C485     C      0.963410000000     0.679390000000     0.988570000000     0.0136083  
C486     C      0.014200000000     0.743590000000     0.021230000000    -0.0494509  
C487     C      0.062110000000     0.818640000000     0.989460000000    -0.0250576  
C488     C      0.025850000000     0.770490000000     0.989100000000     0.0125722  
C489     C      0.045440000000     0.828170000000     0.923350000000    -0.0229688  
C490     C      0.016120000000     0.778560000000     0.923800000000     0.00453495 
C491     C      0.982420000000     0.698470000000     0.021000000000    -0.0354628  
C492     C      0.006320000000     0.751750000000     0.956260000000    -0.0109135  
C493     C      0.998710000000     0.758870000000     0.891390000000    -0.0349099  
C494     C      0.971130000000     0.713100000000     0.890980000000    -0.0485353  
C495     C      0.929910000000     0.636350000000     0.922230000000    -0.0280271  
C496     C      0.959950000000     0.686050000000     0.923000000000     0.0123859  
C497     C      0.928070000000     0.631220000000     0.988040000000    -0.0228958  
C498     C      0.976310000000     0.705610000000     0.955930000000    -0.00609603 
C499     C      0.161610000000     0.363570000000     0.968160000000     0.0174699  
C500     C      0.114370000000     0.300470000000     0.933640000000    -0.0425349  
C501     C      0.065070000000     0.224360000000     0.963150000000    -0.0234214  
C502     C      0.100720000000     0.272470000000     0.965130000000     0.0104882  
C503     C      0.076990000000     0.212690000000     0.029830000000    -0.0248664  
C504     C      0.105720000000     0.262200000000     0.030470000000     0.00925645 
C505     C      0.145300000000     0.345570000000     0.935140000000    -0.0422698  
C506     C      0.117640000000     0.290050000000     0.998580000000    -0.00612273 
C507     C      0.120600000000     0.280700000000     0.063450000000    -0.0442087  
C508     C      0.147710000000     0.326320000000     0.065010000000    -0.0454643  
C509     C      0.190320000000     0.403940000000     0.035630000000    -0.0258404  
C510     C      0.160850000000     0.354440000000     0.033610000000     0.0133396  
C511     C      0.195510000000     0.411930000000     0.969950000000    -0.0237132  
C512     C      0.147010000000     0.336140000000     0.000140000000    -0.00976368 
H1       H      0.094100000000     0.050580000000     0.893580000000     0.198916   
H2       H      0.997850000000     0.071060000000     0.994230000000     0.195606   
H3       H      0.979070000000     0.908520000000     0.989020000000     0.199567   
H4       H      0.156340000000     0.040820000000     0.033780000000     0.200923   
H5       H      0.960140000000     0.092490000000     0.935220000000     0.128131   
H6       H      0.861090000000     0.973460000000     0.988680000000     0.205675   
H7       H      0.931840000000     0.910750000000     0.054560000000     0.134585   
H8       H      0.990700000000     0.872810000000     0.056840000000     0.190549   
H9       H      0.158220000000     0.949140000000     0.025550000000     0.136831   
H10      H      0.212850000000     0.010580000000     0.977860000000     0.196037   
H11      H      0.198840000000     0.145810000000     0.925070000000     0.142417   
H12      H      0.086810000000     0.165830000000     0.884520000000     0.200292   
H13      H      0.042440000000     0.878660000000     0.079030000000     0.199981   
H14      H      0.253530000000     0.063700000000     0.968680000000     0.203672   
H15      H      0.120660000000     0.141880000000     0.880250000000     0.190304   
H16      H      0.901740000000     0.026270000000     0.978200000000     0.190094   
H17      H      0.919810000000     0.900280000000     0.477750000000     0.192448   
H18      H      0.046130000000     0.045660000000     0.397130000000     0.19153    
H19      H      0.025990000000     0.064990000000     0.533820000000     0.20089    
H20      H      0.114700000000     0.970260000000     0.513370000000     0.200863   
H21      H      0.945260000000     0.020880000000     0.369830000000     0.130064   
H22      H      0.015920000000     0.140910000000     0.408710000000     0.201216   
H23      H      0.103890000000     0.150890000000     0.500380000000     0.13354    
H24      H      0.158030000000     0.124640000000     0.545840000000     0.193665   
H25      H      0.084890000000     0.966530000000     0.601330000000     0.136271   
H26      H      0.043950000000     0.850660000000     0.550470000000     0.201561   
H27      H      0.937890000000     0.837050000000     0.467060000000     0.131732   
H28      H      0.932350000000     0.873790000000     0.392930000000     0.201278   
H29      H      0.140700000000     0.104320000000     0.587430000000     0.199912   
H30      H      0.045820000000     0.886910000000     0.576480000000     0.191562   
H31      H      0.882130000000     0.871560000000     0.406480000000     0.194931   
H32      H      0.020610000000     0.107390000000     0.383290000000     0.183536   
H33      H      0.008870000000     0.469090000000     0.056150000000     0.191816   
H34      H      0.997420000000     0.454830000000     0.911670000000     0.203121   
H35      H      0.060010000000     0.616240000000     0.957540000000     0.197596   
H36      H      0.178380000000     0.542400000000     0.987790000000     0.198711   
H37      H      0.907840000000     0.370090000000     0.944880000000     0.140897   
H38      H      0.907550000000     0.481230000000     0.901780000000     0.205959   
H39      H      0.044590000000     0.625010000000     0.877330000000     0.127467   
H40      H      0.153150000000     0.669960000000     0.907720000000     0.186145   
H41      H      0.204980000000     0.644060000000     0.032340000000     0.146683   
H42      H      0.216550000000     0.558570000000     0.053460000000     0.194293   
H43      H      0.059020000000     0.411310000000     0.070460000000     0.131437   
H44      H      0.957450000000     0.371920000000     0.050590000000     0.187719   
H45      H      0.206390000000     0.693650000000     0.931780000000     0.202318   
H46      H      0.194030000000     0.535440000000     0.093410000000     0.201471   
H47      H      0.910450000000     0.348720000000     0.020690000000     0.197672   
H48      H      0.937090000000     0.480210000000     0.867940000000     0.19777    
H49      H      0.969700000000     0.468970000000     0.549660000000     0.195673   
H50      H      0.929310000000     0.450750000000     0.407470000000     0.200879   
H51      H      0.083200000000     0.603660000000     0.449540000000     0.19783    
H52      H      0.098360000000     0.453220000000     0.475030000000     0.194075   
H53      H      0.854620000000     0.477750000000     0.452940000000     0.144457   
H54      H      0.903690000000     0.541870000000     0.401290000000     0.199093   
H55      H      0.081540000000     0.599760000000     0.369490000000     0.130093   
H56      H      0.210950000000     0.608920000000     0.422510000000     0.200215   
H57      H      0.187060000000     0.511040000000     0.482130000000     0.137251   
H58      H      0.128870000000     0.434670000000     0.541970000000     0.193058   
H59      H      0.964930000000     0.385100000000     0.574510000000     0.125412   
H60      H      0.878730000000     0.372390000000     0.539470000000     0.187477   
H61      H      0.167800000000     0.622690000000     0.407180000000     0.186953   
H62      H      0.139480000000     0.474950000000     0.567130000000     0.204658   
H63      H      0.832600000000     0.381170000000     0.522030000000     0.19916    
H64      H      0.914940000000     0.534160000000     0.361280000000     0.200089   
H65      H      0.542180000000     0.000810000000     0.889670000000     0.19457    
H66      H      0.500950000000     0.928650000000     0.025660000000     0.191139   
H67      H      0.681210000000     0.069290000000     0.002690000000     0.196027   
H68      H      0.524680000000     0.097280000000     0.983520000000     0.199247   
H69      H      0.478230000000     0.861470000000     0.994170000000     0.132314   
H70      H      0.584950000000     0.895310000000     0.028650000000     0.201647   
H71      H      0.687160000000     0.044690000000     0.071530000000     0.125463   
H72      H      0.677380000000     0.116740000000     0.071900000000     0.190254   
H73      H      0.632850000000     0.183330000000     0.954800000000     0.140969   
H74      H      0.528350000000     0.150110000000     0.918670000000     0.194227   
H75      H      0.440690000000     0.005840000000     0.876360000000     0.131338   
H76      H      0.450530000000     0.933140000000     0.877560000000     0.183903   
H77      H      0.702610000000     0.167170000000     0.050370000000     0.199494   
H78      H      0.566430000000     0.155140000000     0.888540000000     0.199321   
H79      H      0.423710000000     0.882830000000     0.899200000000     0.199296   
H80      H      0.569030000000     0.898460000000     0.068570000000     0.19663    
H81      H      0.449590000000     0.000510000000     0.406010000000     0.198734   
H82      H      0.488890000000     0.016870000000     0.550190000000     0.199225   
H83      H      0.530020000000     0.905730000000     0.490910000000     0.197634   
H84      H      0.640390000000     0.081380000000     0.456800000000     0.19527    
H85      H      0.381940000000     0.967610000000     0.536220000000     0.13313    
H86      H      0.399190000000     0.901400000000     0.564120000000     0.194861   
H87      H      0.574070000000     0.925340000000     0.577340000000     0.138166   
H88      H      0.623160000000     0.921540000000     0.523870000000     0.190684   
H89      H      0.663430000000     0.027300000000     0.410550000000     0.129995   
H90      H      0.651860000000     0.101890000000     0.381570000000     0.186025   
H91      H      0.503890000000     0.106160000000     0.388730000000     0.136991   
H92      H      0.370910000000     0.037380000000     0.446360000000     0.204042   
H93      H      0.679600000000     0.963380000000     0.517190000000     0.20362    
H94      H      0.615520000000     0.115410000000     0.353290000000     0.200325   
H95      H      0.415050000000     0.057520000000     0.417360000000     0.191685   
H96      H      0.436320000000     0.912060000000     0.601120000000     0.199568   
H97      H      0.508310000000     0.508560000000     0.052620000000     0.197369   
H98      H      0.477180000000     0.482270000000     0.910160000000     0.197639   
H99      H      0.636750000000     0.632380000000     0.952520000000     0.198856   
H100     H      0.633470000000     0.475030000000     0.990440000000     0.19518    
H101     H      0.402800000000     0.511630000000     0.940620000000     0.134514   
H102     H      0.455630000000     0.564030000000     0.887560000000     0.191656   
H103     H      0.637040000000     0.624430000000     0.873060000000     0.135954   
H104     H      0.716340000000     0.613000000000     0.901940000000     0.196508   
H105     H      0.721320000000     0.534430000000     0.014150000000     0.12573    
H106     H      0.664840000000     0.476820000000     0.072470000000     0.186463   
H107     H      0.489170000000     0.400260000000     0.066060000000     0.14397    
H108     H      0.398320000000     0.397530000000     0.026310000000     0.202763   
H109     H      0.731450000000     0.651610000000     0.930130000000     0.197699   
H110     H      0.621410000000     0.446830000000     0.101560000000     0.199372   
H111     H      0.410300000000     0.438380000000     0.051260000000     0.19663    
H112     H      0.482040000000     0.565080000000     0.851090000000     0.200529   
H113     H      0.439620000000     0.450650000000     0.532450000000     0.195473   
H114     H      0.469570000000     0.486790000000     0.390570000000     0.196559   
H115     H      0.591540000000     0.611540000000     0.479560000000     0.193842   
H116     H      0.603200000000     0.460170000000     0.486790000000     0.204068   
H117     H      0.381520000000     0.484230000000     0.397810000000     0.127076   
H118     H      0.440860000000     0.571320000000     0.386500000000     0.194356   
H119     H      0.628770000000     0.635120000000     0.405040000000     0.135213   
H120     H      0.683660000000     0.648240000000     0.470560000000     0.188486   
H121     H      0.717410000000     0.555000000000     0.514130000000     0.14648    
H122     H      0.573480000000     0.399640000000     0.577550000000     0.201154   
H123     H      0.431670000000     0.353100000000     0.527700000000     0.138908   
H124     H      0.343210000000     0.359170000000     0.461990000000     0.205368   
H125     H      0.722910000000     0.629120000000     0.469160000000     0.197564   
H126     H      0.611810000000     0.453780000000     0.570430000000     0.202281   
H127     H      0.359510000000     0.373590000000     0.503930000000     0.19045    
H128     H      0.480590000000     0.591060000000     0.354200000000     0.199464   
H129     H      0.485150000000     0.530830000000     0.632700000000     0.0503144  
H130     H      0.587950000000     0.462420000000     0.807960000000     0.0415788  
H131     H      0.442360000000     0.404230000000     0.653330000000     0.0392364  
H132     H      0.557260000000     0.561290000000     0.801600000000     0.0454886  
H133     H      0.527200000000     0.387960000000     0.768110000000     0.0366197  
H134     H      0.498350000000     0.375810000000     0.705590000000     0.0368813  
H135     H      0.503040000000     0.416520000000     0.644120000000     0.0492538  
H136     H      0.526200000000     0.427970000000     0.820470000000     0.046918   
H137     H      0.502830000000     0.572590000000     0.683320000000     0.037854   
H138     H      0.433980000000     0.482210000000     0.651140000000     0.038585   
H139     H      0.541010000000     0.588500000000     0.743330000000     0.0367303  
H140     H      0.605600000000     0.553580000000     0.788570000000     0.03935    
H141     H      0.576470000000     0.480750000000     0.311750000000     0.0504848  
H142     H      0.656870000000     0.637170000000     0.145500000000     0.040153   
H143     H      0.505380000000     0.550380000000     0.285090000000     0.034875   
H144     H      0.639960000000     0.519790000000     0.144900000000     0.0460382  
H145     H      0.584140000000     0.649530000000     0.180500000000     0.0367248  
H146     H      0.553270000000     0.630320000000     0.240380000000     0.0357564  
H147     H      0.562060000000     0.594720000000     0.301720000000     0.0461934  
H148     H      0.595390000000     0.619280000000     0.128060000000     0.047993   
H149     H      0.597830000000     0.458100000000     0.261150000000     0.0376097  
H150     H      0.518340000000     0.468820000000     0.288870000000     0.0408451  
H151     H      0.634080000000     0.480350000000     0.203130000000     0.0353171  
H152     H      0.682860000000     0.572660000000     0.159840000000     0.0382418  
H153     H      0.534650000000     0.675920000000     0.532290000000     0.0491128  
H154     H      0.349180000000     0.743090000000     0.481020000000     0.0377885  
H155     H      0.542880000000     0.725900000000     0.433710000000     0.0390453  
H156     H      0.432360000000     0.797220000000     0.558840000000     0.0498456  
H157     H      0.396870000000     0.750600000000     0.409170000000     0.0380488  
H158     H      0.448660000000     0.720050000000     0.396890000000     0.0361895  
H159     H      0.488740000000     0.676130000000     0.421640000000     0.0457038  
H160     H      0.376990000000     0.789300000000     0.449170000000     0.0511903  
H161     H      0.524220000000     0.721710000000     0.571460000000     0.0362573  
H162     H      0.572580000000     0.725290000000     0.505760000000     0.0355958  
H163     H      0.474260000000     0.754180000000     0.583440000000     0.0391019  
H164     H      0.379020000000     0.748370000000     0.545550000000     0.0381441  
H165     H      0.557030000000     0.326660000000     0.524870000000     0.0422842  
H166     H      0.672430000000     0.251240000000     0.406940000000     0.0355355  
H167     H      0.479210000000     0.280170000000     0.437490000000     0.0375208  
H168     H      0.670870000000     0.213040000000     0.504410000000     0.0502125  
H169     H      0.579390000000     0.246540000000     0.366490000000     0.0360952  
H170     H      0.529890000000     0.280650000000     0.375450000000     0.0356598  
H171     H      0.520740000000     0.329630000000     0.412680000000     0.0499297  
H172     H      0.619130000000     0.202800000000     0.393800000000     0.0431522  
H173     H      0.598390000000     0.285060000000     0.551430000000     0.0352614  
H174     H      0.504440000000     0.277000000000     0.510760000000     0.0388833  
H175     H      0.650210000000     0.253380000000     0.542100000000     0.0380307  
H176     H      0.700240000000     0.258830000000     0.472150000000     0.0361236  
H177     H      0.652040000000     0.045910000000     0.645530000000     0.0400527  
H178     H      0.525630000000     0.066670000000     0.805590000000     0.0496248  
H179     H      0.502330000000     0.986920000000     0.650300000000     0.0373475  
H180     H      0.672700000000     0.134740000000     0.801710000000     0.0385166  
H181     H      0.475080000000     0.026200000000     0.756650000000     0.0378562  
H182     H      0.466330000000     0.990730000000     0.702250000000     0.0348142  
H183     H      0.545050000000     0.970140000000     0.672560000000     0.041662   
H184     H      0.568920000000     0.117450000000     0.783270000000     0.0411836  
H185     H      0.711530000000     0.102070000000     0.691730000000     0.0367438  
H186     H      0.640270000000     0.091720000000     0.635010000000     0.0488617  
H187     H      0.720550000000     0.118930000000     0.754160000000     0.0370207  
H188     H      0.668370000000     0.081520000000     0.814250000000     0.0491172  
H189     H      0.455230000000     0.965490000000     0.135850000000     0.0498045  
H190     H      0.577540000000     0.023570000000     0.305780000000     0.04597    
H191     H      0.553160000000     0.923490000000     0.158010000000     0.0384963  
H192     H      0.464670000000     0.900180000000     0.311470000000     0.0445981  
H193     H      0.635640000000     0.006710000000     0.267500000000     0.0353871  
H194     H      0.636810000000     0.995050000000     0.205200000000     0.0382342  
H195     H      0.595840000000     0.980720000000     0.146980000000     0.0498972  
H196     H      0.580260000000     0.974520000000     0.322140000000     0.0387483  
H197     H      0.391730000000     0.911040000000     0.186950000000     0.0365066  
H198     H      0.446810000000     0.910440000000     0.137360000000     0.0371507  
H199     H      0.389020000000     0.906350000000     0.252020000000     0.0367719  
H200     H      0.431920000000     0.930780000000     0.309820000000     0.0432908  
H201     H      0.560350000000     0.731210000000     0.987960000000     0.0414345  
H202     H      0.531290000000     0.882760000000     0.855240000000     0.0429781  
H203     H      0.521980000000     0.686310000000     0.892010000000     0.0493113  
H204     H      0.666820000000     0.914810000000     0.871520000000     0.0405212  
H205     H      0.490580000000     0.802390000000     0.840880000000     0.0360644  
H206     H      0.473380000000     0.727860000000     0.864350000000     0.0358997  
H207     H      0.487350000000     0.685140000000     0.927450000000     0.0402219  
H208     H      0.580720000000     0.887290000000     0.833080000000     0.0368266  
H209     H      0.664460000000     0.814350000000     0.984600000000     0.0354722  
H210     H      0.618320000000     0.734790000000     0.981540000000     0.0465264  
H211     H      0.691370000000     0.887850000000     0.953520000000     0.0351681  
H212     H      0.671610000000     0.937710000000     0.912620000000     0.0492329  
H213     H      0.502340000000     0.309870000000     0.973930000000     0.0467049  
H214     H      0.548490000000     0.160980000000     0.121380000000     0.0375238  
H215     H      0.635710000000     0.361600000000     0.025250000000     0.0374221  
H216     H      0.453490000000     0.108320000000     0.044660000000     0.0449896  
H217     H      0.637750000000     0.246200000000     0.111030000000     0.0358007  
H218     H      0.653090000000     0.320120000000     0.087210000000     0.0347139  
H219     H      0.601730000000     0.360080000000     0.061290000000     0.0452912  
H220     H      0.596760000000     0.165420000000     0.097830000000     0.0453444  
H221     H      0.456180000000     0.229800000000     0.972290000000     0.0351152  
H222     H      0.559740000000     0.313340000000     0.965820000000     0.0412195  
H223     H      0.431470000000     0.156920000000     0.003970000000     0.0337573  
H224     H      0.460900000000     0.132340000000     0.085630000000     0.0406396  
H225     H      0.815800000000     0.116380000000     0.516780000000     0.0395051  
H226     H      0.801030000000     0.325310000000     0.452400000000     0.046432   
H227     H      0.735000000000     0.143200000000     0.562590000000     0.0474986  
H228     H      0.840880000000     0.278100000000     0.383210000000     0.0368756  
H229     H      0.775760000000     0.286580000000     0.511090000000     0.0335463  
H230     H      0.757230000000     0.222040000000     0.553800000000     0.0369773  
H231     H      0.796080000000     0.152540000000     0.561630000000     0.0376086  
H232     H      0.776380000000     0.284340000000     0.421470000000     0.0370575  
H233     H      0.823680000000     0.135150000000     0.434160000000     0.0364432  
H234     H      0.770040000000     0.086010000000     0.483700000000     0.0473597  
H235     H      0.858110000000     0.206020000000     0.398210000000     0.0361212  
H236     H      0.898620000000     0.292910000000     0.407630000000     0.0504189  
H237     H      0.261260000000     0.849510000000     0.393670000000     0.0368201  
H238     H      0.143800000000     0.695480000000     0.536850000000     0.0490238  
H239     H      0.287780000000     0.907400000000     0.477730000000     0.0447166  
H240     H      0.265380000000     0.700280000000     0.523990000000     0.0390735  
H241     H      0.186800000000     0.780280000000     0.552760000000     0.0355924  
H242     H      0.226870000000     0.854530000000     0.522280000000     0.034055   
H243     H      0.242710000000     0.884110000000     0.442130000000     0.0374324  
H244     H      0.198500000000     0.705420000000     0.563100000000     0.0391051  
H245     H      0.296420000000     0.777660000000     0.396680000000     0.0366645  
H246     H      0.321410000000     0.856590000000     0.393100000000     0.0471345  
H247     H      0.272550000000     0.708740000000     0.434800000000     0.0334623  
H248     H      0.240050000000     0.663660000000     0.489620000000     0.0478118  
H249     H      0.673700000000     0.439960000000     0.423340000000     0.0474265  
H250     H      0.866060000000     0.574010000000     0.563100000000     0.0369958  
H251     H      0.771250000000     0.551750000000     0.388970000000     0.0357013  
H252     H      0.829710000000     0.455050000000     0.564620000000     0.0399846  
H253     H      0.880810000000     0.632100000000     0.492240000000     0.0362209  
H254     H      0.827470000000     0.626120000000     0.438360000000     0.035094   
H255     H      0.745720000000     0.580840000000     0.406460000000     0.041109   
H256     H      0.916700000000     0.593490000000     0.535850000000     0.0472414  
H257     H      0.704810000000     0.404200000000     0.472090000000     0.0404359  
H258     H      0.729660000000     0.467860000000     0.400620000000     0.0406691  
H259     H      0.753910000000     0.410740000000     0.528420000000     0.0339367  
H260     H      0.812230000000     0.492980000000     0.576850000000     0.036366   
H261     H      0.129200000000     0.401560000000     0.406450000000     0.0445056  
H262     H      0.323430000000     0.546880000000     0.531890000000     0.0419094  
H263     H      0.227440000000     0.501900000000     0.359900000000     0.037074   
H264     H      0.305380000000     0.431310000000     0.535890000000     0.0377446  
H265     H      0.340320000000     0.600870000000     0.457150000000     0.0396877  
H266     H      0.286670000000     0.587830000000     0.402600000000     0.0328063  
H267     H      0.207810000000     0.538730000000     0.371160000000     0.0432411  
H268     H      0.376880000000     0.570460000000     0.506770000000     0.0488359  
H269     H      0.168390000000     0.369170000000     0.452980000000     0.0354329  
H270     H      0.179630000000     0.421340000000     0.378570000000     0.0391996  
H271     H      0.224310000000     0.381810000000     0.506190000000     0.0356238  
H272     H      0.280220000000     0.462810000000     0.549790000000     0.0342175  
H273     H      0.060040000000     0.580590000000     0.631240000000     0.0480913  
H274     H      0.154210000000     0.538060000000     0.808160000000     0.0415509  
H275     H      0.018710000000     0.451980000000     0.656890000000     0.041426   
H276     H      0.058110000000     0.579400000000     0.806490000000     0.0507532  
H277     H      0.118920000000     0.456400000000     0.767910000000     0.0362271  
H278     H      0.094660000000     0.442180000000     0.705300000000     0.036952   
H279     H      0.080750000000     0.471500000000     0.645410000000     0.0473088  
H280     H      0.106240000000     0.483550000000     0.820000000000     0.0466217  
H281     H      0.036110000000     0.605870000000     0.683250000000     0.0361194  
H282     H      0.000650000000     0.534800000000     0.641350000000     0.0396203  
H283     H      0.055100000000     0.616800000000     0.746770000000     0.0370305  
H284     H      0.122680000000     0.603340000000     0.800990000000     0.0389316  
H285     H      0.008730000000     0.424340000000     0.312390000000     0.0451202  
H286     H      0.080050000000     0.601000000000     0.157440000000     0.0377944  
H287     H      0.913120000000     0.461490000000     0.279300000000     0.0351954  
H288     H      0.105930000000     0.502810000000     0.155170000000     0.0471983  
H289     H      0.987010000000     0.583970000000     0.183780000000     0.03605    
H290     H      0.945690000000     0.550410000000     0.239480000000     0.0375194  
H291     H      0.948840000000     0.512680000000     0.299150000000     0.0440301  
H292     H      0.022670000000     0.571160000000     0.133580000000     0.0471984  
H293     H      0.052910000000     0.421360000000     0.264560000000     0.0370162  
H294     H      0.952330000000     0.406810000000     0.285710000000     0.0374917  
H295     H      0.099120000000     0.459040000000     0.211380000000     0.0374377  
H296     H      0.131520000000     0.554060000000     0.175230000000     0.0376069  
H297     H      0.793680000000     0.155570000000     0.907210000000     0.0471967  
H298     H      0.022950000000     0.286600000000     0.976540000000     0.0406632  
H299     H      0.786040000000     0.236340000000     0.969880000000     0.0395544  
H300     H      0.008610000000     0.345310000000     0.889230000000     0.0412846  
H301     H      0.948970000000     0.277250000000     0.035190000000     0.0372738  
H302     H      0.859340000000     0.235300000000     0.033960000000     0.032574   
H303     H      0.782510000000     0.192460000000     0.002230000000     0.0389669  
H304     H      0.023250000000     0.325450000000     0.003060000000     0.0451677  
H305     H      0.851910000000     0.224830000000     0.856400000000     0.0365302  
H306     H      0.772960000000     0.194910000000     0.891780000000     0.040468   
H307     H      0.938900000000     0.280710000000     0.855500000000     0.0377777  
H308     H      0.024530000000     0.303720000000     0.907670000000     0.0393587  
H309     H      0.357310000000     0.858630000000     0.059640000000     0.0379792  
H310     H      0.101350000000     0.715420000000     0.959670000000     0.034541   
H311     H      0.338480000000     0.859200000000     0.948950000000     0.0424762  
H312     H      0.106710000000     0.741300000000     0.055410000000     0.0374314  
H313     H      0.171180000000     0.765720000000     0.923890000000     0.0337088  
H314     H      0.260060000000     0.811520000000     0.920720000000     0.0336874  
H315     H      0.340190000000     0.816130000000     0.979810000000     0.0397699  
H316     H      0.101550000000     0.754880000000     0.985370000000     0.0391063  
H317     H      0.282000000000     0.826500000000     0.098540000000     0.0358104  
H318     H      0.332730000000     0.895310000000     0.044840000000     0.0467684  
H319     H      0.196500000000     0.768290000000     0.103490000000     0.0359548  
H320     H      0.125730000000     0.701440000000     0.072960000000     0.039579   
H321     H      0.823400000000     0.473080000000     0.070900000000     0.0349098  
H322     H      0.653330000000     0.402740000000     0.924250000000     0.0467441  
H323     H      0.832450000000     0.384570000000     0.031150000000     0.0447766  
H324     H      0.770420000000     0.500130000000     0.892970000000     0.0370575  
H325     H      0.690980000000     0.350900000000     0.950190000000     0.0383256  
H326     H      0.745690000000     0.343120000000     0.999030000000     0.0383288  
H327     H      0.799720000000     0.394130000000     0.061550000000     0.0343473  
H328     H      0.699380000000     0.418680000000     0.893520000000     0.0385669  
H329     H      0.848230000000     0.560430000000     0.018280000000     0.039565   
H330     H      0.880690000000     0.517050000000     0.056360000000     0.0483986  
H331     H      0.812960000000     0.571410000000     0.958600000000     0.0451017  
H332     H      0.757800000000     0.540500000000     0.906350000000     0.0425351  
H333     H      0.427830000000     0.630010000000     0.056730000000     0.0376641  
H334     H      0.241690000000     0.527670000000     0.896870000000     0.047187   
H335     H      0.369570000000     0.507840000000     0.045420000000     0.0396683  
H336     H      0.321140000000     0.650770000000     0.890330000000     0.0356114  
H337     H      0.273340000000     0.484540000000     0.936010000000     0.0388842  
H338     H      0.311550000000     0.475400000000     0.994870000000     0.0440554  
H339     H      0.357020000000     0.548290000000     0.058770000000     0.0347797  
H340     H      0.298140000000     0.572060000000     0.881750000000     0.035866   
H341     H      0.434250000000     0.696560000000     0.999570000000     0.0382898  
H342     H      0.473040000000     0.645030000000     0.024900000000     0.0480794  
H343     H      0.377670000000     0.703060000000     0.951720000000     0.0386985  
H344     H      0.289650000000     0.660410000000     0.921720000000     0.0465109  
H345     H      0.692850000000     0.622530000000     0.630540000000     0.0390253  
H346     H      0.839880000000     0.848610000000     0.608120000000     0.0402668  
H347     H      0.617960000000     0.670800000000     0.575490000000     0.043664   
H348     H      0.899760000000     0.790680000000     0.563740000000     0.0471849  
H349     H      0.736010000000     0.821910000000     0.581010000000     0.0349131  
H350     H      0.659930000000     0.751620000000     0.586000000000     0.0349625  
H351     H      0.636680000000     0.661730000000     0.621090000000     0.0401187  
H352     H      0.821320000000     0.860550000000     0.563530000000     0.0470938  
H353     H      0.789740000000     0.642720000000     0.598710000000     0.0372378  
H354     H      0.700180000000     0.601350000000     0.592480000000     0.0475497  
H355     H      0.865160000000     0.712830000000     0.590650000000     0.0359899  
H356     H      0.897490000000     0.801940000000     0.608450000000     0.0390645  
H357     H      0.348520000000     0.392460000000     0.353560000000     0.0423399  
H358     H      0.250250000000     0.149420000000     0.431470000000     0.0441529  
H359     H      0.409350000000     0.329440000000     0.328720000000     0.03812    
H360     H      0.155580000000     0.199220000000     0.397570000000     0.043408   
H361     H      0.330520000000     0.178850000000     0.395180000000     0.0348214  
H362     H      0.400810000000     0.248720000000     0.375520000000     0.0350756  
H363     H      0.439730000000     0.331650000000     0.372170000000     0.0463735  
H364     H      0.232290000000     0.137120000000     0.386070000000     0.0447942  
H365     H      0.260070000000     0.347500000000     0.360230000000     0.0388824  
H366     H      0.349800000000     0.362540000000     0.319110000000     0.0359816  
H367     H      0.192610000000     0.279530000000     0.385460000000     0.0355515  
H368     H      0.194270000000     0.210390000000     0.438110000000     0.0403937  
H369     H      0.567970000000     0.841600000000     0.366070000000     0.0382836  
H370     H      0.786380000000     0.905690000000     0.499410000000     0.0452249  
H371     H      0.547010000000     0.827940000000     0.464150000000     0.0375113  
H372     H      0.811780000000     0.980060000000     0.403430000000     0.0429782  
H373     H      0.703460000000     0.866190000000     0.518960000000     0.0340188  
H374     H      0.615160000000     0.828140000000     0.503830000000     0.0352391  
H375     H      0.555260000000     0.802090000000     0.429310000000     0.0399253  
H376     H      0.783020000000     0.955220000000     0.485410000000     0.0444091  
H377     H      0.656960000000     0.921930000000     0.334720000000     0.0368513  
H378     H      0.575350000000     0.896310000000     0.360630000000     0.0393176  
H379     H      0.745160000000     0.951450000000     0.347910000000     0.0376487  
H380     H      0.804920000000     0.929210000000     0.390690000000     0.0478672  
H381     H      0.493250000000     0.120630000000     0.584940000000     0.0407072  
H382     H      0.272050000000     0.038020000000     0.476380000000     0.0417704  
H383     H      0.501190000000     0.203200000000     0.508800000000     0.0406287  
H384     H      0.261130000000     0.086020000000     0.564280000000     0.0475539  
H385     H      0.343020000000     0.120810000000     0.431090000000     0.0330734  
H386     H      0.432290000000     0.163150000000     0.439280000000     0.0364771  
H387     H      0.505940000000     0.172630000000     0.476080000000     0.0445973  
H388     H      0.264160000000     0.083670000000     0.456450000000     0.0465094  
H389     H      0.416270000000     0.101570000000     0.616180000000     0.0372324  
H390     H      0.500160000000     0.174940000000     0.574430000000     0.0387969  
H391     H      0.327010000000     0.070120000000     0.609050000000     0.0374703  
H392     H      0.252760000000     0.031600000000     0.561470000000     0.0421243  
H393     H      0.022850000000     0.681900000000     0.395000000000     0.0498013  
H394     H      0.185790000000     0.880110000000     0.481600000000     0.0343262  
H395     H      0.971220000000     0.686980000000     0.481030000000     0.0405889  
H396     H      0.122700000000     0.901610000000     0.396810000000     0.0448193  
H397     H      0.114980000000     0.813080000000     0.540980000000     0.0325073  
H398     H      0.055370000000     0.734590000000     0.540310000000     0.0357539  
H399     H      0.009930000000     0.669670000000     0.508050000000     0.0490411  
H400     H      0.148950000000     0.887040000000     0.509910000000     0.0360356  
H401     H      0.041720000000     0.755670000000     0.359870000000     0.036999   
H402     H      0.972010000000     0.686130000000     0.408140000000     0.0425857  
H403     H      0.094260000000     0.835700000000     0.360630000000     0.036738   
H404     H      0.174220000000     0.893790000000     0.412570000000     0.0374617  
H405     H      0.053160000000     0.300680000000     0.536020000000     0.0389097  
H406     H      0.894130000000     0.089620000000     0.442450000000     0.042084   
H407     H      0.008010000000     0.308270000000     0.434840000000     0.0493502  
H408     H      0.864870000000     0.085670000000     0.538540000000     0.0375465  
H409     H      0.924030000000     0.161200000000     0.407990000000     0.0337573  
H410     H      0.976150000000     0.241210000000     0.405510000000     0.036569   
H411     H      0.054620000000     0.299160000000     0.459870000000     0.0371477  
H412     H      0.853680000000     0.094730000000     0.468520000000     0.0349842  
H413     H      0.984740000000     0.232520000000     0.585510000000     0.0390565  
H414     H      0.999860000000     0.302560000000     0.547010000000     0.0555209  
H415     H      0.938480000000     0.151820000000     0.588270000000     0.036501   
H416     H      0.919970000000     0.085190000000     0.556060000000     0.0434942  
H417     H      0.065290000000     0.061570000000     0.650000000000     0.0440411  
H418     H      0.959150000000     0.950750000000     0.813750000000     0.0519612  
H419     H      0.919040000000     0.998590000000     0.638830000000     0.043504   
H420     H      0.966140000000     0.067840000000     0.797620000000     0.042857   
H421     H      0.893550000000     0.912370000000     0.760170000000     0.0376748  
H422     H      0.890910000000     0.915130000000     0.694880000000     0.0373801  
H423     H      0.929360000000     0.952090000000     0.639170000000     0.0465222  
H424     H      0.913440000000     0.967280000000     0.812200000000     0.041908   
H425     H      0.072290000000     0.126220000000     0.690100000000     0.0349135  
H426     H      0.026370000000     0.084830000000     0.632640000000     0.0349161  
H427     H      0.060390000000     0.128740000000     0.752570000000     0.0344183  
H428     H      0.030570000000     0.089440000000     0.809490000000     0.0400621  
H429     H      0.130640000000     0.047340000000     0.326150000000     0.0450133  
H430     H      0.047220000000     0.936550000000     0.142810000000     0.0435459  
H431     H      0.021480000000     0.917280000000     0.318230000000     0.0396332  
H432     H      0.169420000000     0.057150000000     0.153750000000     0.0399937  
H433     H      0.005330000000     0.892100000000     0.194960000000     0.0340334  
H434     H      0.984920000000     0.887580000000     0.256600000000     0.0406367  
H435     H      0.993750000000     0.951120000000     0.301820000000     0.0528842  
H436     H      0.108140000000     0.951210000000     0.160780000000     0.0407087  
H437     H      0.177640000000     0.090210000000     0.274900000000     0.0375709  
H438     H      0.139040000000     0.000530000000     0.322560000000     0.0445612  
H439     H      0.184260000000     0.101840000000     0.209990000000     0.0372946  
H440     H      0.121350000000     0.071680000000     0.150530000000     0.0502728  
H441     H      0.817260000000     0.896690000000     0.935850000000     0.0441859  
H442     H      0.814710000000     0.711770000000     0.053130000000     0.0378412  
H443     H      0.832080000000     0.818680000000     0.885720000000     0.0382387  
H444     H      0.698840000000     0.717800000000     0.049000000000     0.0480394  
H445     H      0.851630000000     0.707680000000     0.978450000000     0.0398017  
H446     H      0.879780000000     0.763340000000     0.927500000000     0.0402188  
H447     H      0.894630000000     0.837000000000     0.900650000000     0.0491372  
H448     H      0.792410000000     0.667770000000     0.025220000000     0.0500439  
H449     H      0.754280000000     0.855660000000     0.980530000000     0.034672   
H450     H      0.786950000000     0.854110000000     0.906030000000     0.0377486  
H451     H      0.721210000000     0.796710000000     0.028850000000     0.0353438  
H452     H      0.758810000000     0.737780000000     0.070310000000     0.0384569  
H453     H      0.334310000000     0.376730000000     0.930300000000     0.0496594  
H454     H      0.325970000000     0.184130000000     0.048140000000     0.0364498  
H455     H      0.369780000000     0.306560000000     0.886140000000     0.0381142  
H456     H      0.218290000000     0.203590000000     0.048690000000     0.0495477  
H457     H      0.363460000000     0.184310000000     0.975250000000     0.0342009  
H458     H      0.400760000000     0.244390000000     0.928400000000     0.034871   
H459     H      0.427690000000     0.324830000000     0.910660000000     0.0478576  
H460     H      0.297340000000     0.143030000000     0.017290000000     0.0403694  
H461     H      0.270890000000     0.336270000000     0.974140000000     0.0400434  
H462     H      0.312190000000     0.333390000000     0.901540000000     0.0373923  
H463     H      0.237250000000     0.278700000000     0.023240000000     0.0407554  
H464     H      0.279430000000     0.220530000000     0.066990000000     0.03804    
H465     H      0.712670000000     0.941170000000     0.021000000000     0.0454435  
H466     H      0.947370000000     0.103980000000     0.104290000000     0.039729   
H467     H      0.802740000000     0.023460000000     0.952270000000     0.0373647  
H468     H      0.920910000000     0.987250000000     0.117830000000     0.0438921  
H469     H      0.941290000000     0.141380000000     0.022140000000     0.0366421  
H470     H      0.873540000000     0.117750000000     0.976490000000     0.038853   
H471     H      0.787910000000     0.065380000000     0.959460000000     0.0482031  
H472     H      0.987940000000     0.119170000000     0.069190000000     0.0444822  
H473     H      0.759630000000     0.916590000000     0.066900000000     0.0370352  
H474     H      0.753560000000     0.945000000000     0.989630000000     0.0306909  
H475     H      0.830190000000     0.938340000000     0.109870000000     0.0395071  
H476     H      0.910840000000     0.027780000000     0.134650000000     0.038505   
H477     H      0.369190000000     0.099330000000     0.957020000000     0.0301247  
H478     H      0.128830000000     0.917010000000     0.889170000000     0.0449709  
H479     H      0.336680000000     0.979690000000     0.990980000000     0.0505984  
H480     H      0.200130000000     0.005750000000     0.819550000000     0.0372347  
H481     H      0.179660000000     0.898360000000     0.935180000000     0.0375506  
H482     H      0.250630000000     0.925520000000     0.978080000000     0.0392718  
H483     H      0.322320000000     0.021970000000     0.998100000000     0.0358275  
H484     H      0.167020000000     0.930570000000     0.852760000000     0.0381254  
H485     H      0.354020000000     0.122300000000     0.880200000000     0.0370105  
H486     H      0.405400000000     0.099710000000     0.923470000000     0.0434262  
H487     H      0.280250000000     0.097200000000     0.840190000000     0.039307   
H488     H      0.189620000000     0.046320000000     0.835850000000     0.0398504  
H489     H      0.027380000000     0.842520000000     0.903310000000     0.0492802  
H490     H      0.890740000000     0.627630000000     0.984820000000     0.0365435  
H491     H      0.099530000000     0.823750000000     0.987020000000     0.0361102  
H492     H      0.940120000000     0.625460000000     0.899710000000     0.0517112  
H493     H      0.972960000000     0.678370000000     0.046130000000     0.0385921  
H494     H      0.029540000000     0.757610000000     0.046550000000     0.035502   
H495     H      0.061760000000     0.829960000000     0.015570000000     0.0442629  
H496     H      0.930120000000     0.612670000000     0.013720000000     0.047697   
H497     H      0.006550000000     0.779100000000     0.866270000000     0.0318993  
H498     H      0.082630000000     0.839130000000     0.914590000000     0.0343923  
H499     H      0.958340000000     0.698720000000     0.865600000000     0.0392814  
H500     H      0.890610000000     0.627190000000     0.917400000000     0.0370629  
H501     H      0.039210000000     0.200940000000     0.037770000000     0.0334816  
H502     H      0.193490000000     0.430850000000     0.944500000000     0.047122   
H503     H      0.068640000000     0.214220000000     0.937390000000     0.0425839  
H504     H      0.229580000000     0.413280000000     0.041220000000     0.0355018  
H505     H      0.156120000000     0.366530000000     0.910490000000     0.0384625  
H506     H      0.101080000000     0.287340000000     0.907810000000     0.0339362  
H507     H      0.027150000000     0.218970000000     0.963410000000     0.0349401  
H508     H      0.233400000000     0.416880000000     0.973620000000     0.0360891  
H509     H      0.111160000000     0.259630000000     0.088130000000     0.0362313  
H510     H      0.094720000000     0.198250000000     0.050100000000     0.049825   
H511     H      0.158550000000     0.339750000000     0.090810000000     0.0374514  
H512     H      0.178840000000     0.413760000000     0.058150000000     0.0485276  
N1       N      0.551270000000     0.497360000000     0.816810000000    -0.164472   
N2       N      0.487430000000     0.470200000000     0.633000000000    -0.16266    
N3       N      0.619890000000     0.571020000000     0.131830000000    -0.163601   
N4       N      0.555740000000     0.530690000000     0.310830000000    -0.163745   
N5       N      0.407130000000     0.798910000000     0.503600000000    -0.162883   
N6       N      0.517340000000     0.674960000000     0.475540000000    -0.163529   
N7       N      0.642940000000     0.202370000000     0.449740000000    -0.16453    
N8       N      0.532550000000     0.328950000000     0.469880000000    -0.164482   
N9       N      0.602020000000     0.084200000000     0.815510000000    -0.16306    
N10      N      0.576960000000     0.028260000000     0.637610000000    -0.163874   
N11      N      0.509050000000     0.967980000000     0.319400000000    -0.163393   
N12      N      0.520330000000     0.961380000000     0.133600000000    -0.163313   
N13      N      0.602390000000     0.915070000000     0.882730000000    -0.163081   
N14      N      0.560620000000     0.700870000000     0.942920000000    -0.161691   
N15      N      0.524480000000     0.132110000000     0.072220000000    -0.162843   
N16      N      0.561880000000     0.344820000000     0.010870000000    -0.162822   
N17      N      0.853520000000     0.315280000000     0.427070000000    -0.16396    
N18      N      0.746760000000     0.110660000000     0.522990000000    -0.164046   
N19      N      0.188380000000     0.672890000000     0.516600000000    -0.163282   
N20      N      0.309720000000     0.886300000000     0.435090000000    -0.164468   
N21      N      0.877910000000     0.523190000000     0.549250000000    -0.165424   
N22      N      0.705060000000     0.510340000000     0.414550000000    -0.165071   
N23      N      0.345440000000     0.500970000000     0.522430000000    -0.164074   
N24      N      0.163580000000     0.470800000000     0.389630000000    -0.164956   
N25      N      0.088150000000     0.535520000000     0.819040000000    -0.164218   
N26      N      0.053720000000     0.517070000000     0.632200000000    -0.164216   
N27      N      0.069490000000     0.541480000000     0.140100000000    -0.164663   
N28      N      0.975810000000     0.466040000000     0.309840000000    -0.164358   
N29      N      0.019200000000     0.339980000000     0.946220000000    -0.162438   
N30      N      0.771500000000     0.178080000000     0.947640000000    -0.163963   
N31      N      0.109820000000     0.704350000000     0.016550000000    -0.164102   
N32      N      0.353830000000     0.873130000000     0.003600000000    -0.164707   
N33      N      0.700700000000     0.472980000000     0.914330000000    -0.164475   
N34      N      0.862880000000     0.452180000000     0.043550000000    -0.163311   
N35      N      0.259270000000     0.592630000000     0.909870000000    -0.162932   
N36      N      0.426040000000     0.575350000000     0.036360000000    -0.165484   
N37      N      0.870400000000     0.833540000000     0.568200000000    -0.163135   
N38      N      0.654110000000     0.631720000000     0.583920000000    -0.163674   
N39      N      0.192470000000     0.161540000000     0.409120000000    -0.164279   
N40      N      0.398010000000     0.365950000000     0.363750000000    -0.165163   
N41      N      0.808570000000     0.933950000000     0.446580000000    -0.163969   
N42      N      0.557820000000     0.863210000000     0.412680000000    -0.163498   
N43      N      0.249120000000     0.065720000000     0.511800000000    -0.16304    
N44      N      0.502580000000     0.144900000000     0.529980000000    -0.162722   
N45      N      0.136270000000     0.898030000000     0.453540000000    -0.16628    
N46      N      0.010850000000     0.669260000000     0.450980000000    -0.162191   
N47      N      0.906740000000     0.083640000000     0.499340000000    -0.165817   
N48      N      0.013460000000     0.313490000000     0.491480000000    -0.161552   
N49      N      0.986260000000     0.019480000000     0.818760000000    -0.16191    
N50      N      0.992710000000     0.015310000000     0.633210000000    -0.160551   
N51      N      0.098830000000     0.005840000000     0.139810000000    -0.16324    
N52      N      0.065340000000     0.985130000000     0.326140000000    -0.162965   
N53      N      0.740260000000     0.687980000000     0.035700000000    -0.164113   
N54      N      0.861130000000     0.871160000000     0.919320000000    -0.164233   
N55      N      0.253050000000     0.169130000000     0.032640000000    -0.165342   
N56      N      0.385790000000     0.355470000000     0.920970000000    -0.164138   
N57      N      0.958160000000     0.051980000000     0.091800000000    -0.163654   
N58      N      0.745870000000     0.001920000000     0.987520000000    -0.164804   
N59      N      0.155430000000     0.982600000000     0.863860000000    -0.16356    
N60      N      0.375800000000     0.041700000000     0.960260000000    -0.165135   
N61      N      0.936770000000     0.615100000000     0.956960000000    -0.163186   
N62      N      0.049950000000     0.842990000000     0.959120000000    -0.166298   
N63      N      0.184600000000     0.426210000000     0.001130000000    -0.164343   
N64      N      0.074430000000     0.198800000000     0.994000000000    -0.165865   
O1       O      0.211400000000     0.113230000000     0.996490000000    -0.382983   
O2       O      0.170030000000     0.127550000000     0.033930000000    -0.373179   
O3       O      0.015910000000     0.054680000000     0.869920000000    -0.373318   
O4       O      0.000580000000     0.984010000000     0.869650000000    -0.371792   
O5       O      0.059520000000     0.144610000000     0.958880000000    -0.385506   
O6       O      0.083100000000     0.139490000000     0.017400000000    -0.370752   
O7       O      0.159730000000     0.026950000000     0.904570000000    -0.369892   
O8       O      0.087330000000     0.966420000000     0.891250000000    -0.36721    
O9       O      0.203510000000     0.121900000000     0.917850000000    -0.350911   
O10      O      0.219990000000     0.040630000000     0.970910000000    -0.523222   
O11      O      0.093540000000     0.141520000000     0.890420000000    -0.524327   
O12      O      0.971460000000     0.090290000000     0.912510000000    -0.341431   
O13      O      0.113090000000     0.096360000000     0.968180000000    -0.500041   
O14      O      0.084510000000     0.042770000000     0.917970000000    -0.635854   
O15      O      0.061750000000     0.895780000000     0.994590000000    -0.382961   
O16      O      0.034490000000     0.898930000000     0.936810000000    -0.369959   
O17      O      0.955870000000     0.006620000000     0.052730000000    -0.370263   
O18      O      0.025990000000     0.070500000000     0.062920000000    -0.372992   
O19      O      0.903100000000     0.926780000000     0.955870000000    -0.371971   
O20      O      0.944440000000     0.909830000000     0.920570000000    -0.37293    
O21      O      0.080290000000     0.976030000000     0.086330000000    -0.370602   
O22      O      0.104140000000     0.048650000000     0.087620000000    -0.371601   
O23      O      0.025850000000     0.889440000000     0.060870000000    -0.526275   
O24      O      0.147680000000     0.956200000000     0.046430000000    -0.358722   
O25      O      0.909340000000     0.912220000000     0.034600000000    -0.348432   
O26      O      0.894600000000     0.996420000000     0.986080000000    -0.523545   
O27      O      0.001050000000     0.939960000000     0.987060000000    -0.640256   
O28      O      0.029790000000     0.994120000000     0.036770000000    -0.499741   
O29      O      0.099760000000     0.981040000000     0.966590000000    -0.501341   
O30      O      0.014090000000     0.055470000000     0.988430000000    -0.637357   
O31      O      0.128630000000     0.033680000000     0.016860000000    -0.633047   
O32      O      0.986030000000     0.003150000000     0.938640000000    -0.491807   
O33      O      0.078870000000     0.900910000000     0.482660000000    -0.375912   
O34      O      0.119870000000     0.954690000000     0.439320000000    -0.369467   
O35      O      0.882750000000     0.949640000000     0.428060000000    -0.372472   
O36      O      0.873380000000     0.949640000000     0.486840000000    -0.371233   
O37      O      0.010440000000     0.966290000000     0.368840000000    -0.3728     
O38      O      0.092150000000     0.005860000000     0.382510000000    -0.376968   
O39      O      0.941680000000     0.865680000000     0.538810000000    -0.374654   
O40      O      0.903650000000     0.905190000000     0.544940000000    -0.37324    
O41      O      0.970600000000     0.840360000000     0.474820000000    -0.340876   
O42      O      0.039710000000     0.875680000000     0.553320000000    -0.524713   
O43      O      0.916820000000     0.887730000000     0.402810000000    -0.533481   
O44      O      0.935880000000     0.990300000000     0.365400000000    -0.338126   
O45      O      0.025930000000     0.943600000000     0.443310000000    -0.495378   
O46      O      0.951400000000     0.926600000000     0.477980000000    -0.630954   
O47      O      0.045880000000     0.028160000000     0.591130000000    -0.382024   
O48      O      0.963900000000     0.987030000000     0.579220000000    -0.366176   
O49      O      0.116630000000     0.125710000000     0.431510000000    -0.378486   
O50      O      0.153840000000     0.086600000000     0.421880000000    -0.365233   
O51      O      0.965560000000     0.080820000000     0.471840000000    -0.367885   
O52      O      0.930960000000     0.033120000000     0.519930000000    -0.375751   
O53      O      0.175170000000     0.048870000000     0.532170000000    -0.368967   
O54      O      0.180730000000     0.040590000000     0.474460000000    -0.372899   
O55      O      0.139290000000     0.099940000000     0.562510000000    -0.526771   
O56      O      0.115530000000     0.992740000000     0.593490000000    -0.349773   
O57      O      0.071300000000     0.145830000000     0.490160000000    -0.352773   
O58      O      0.021770000000     0.116620000000     0.406580000000    -0.525467   
O59      O      0.028250000000     0.045850000000     0.518660000000    -0.633013   
O60      O      0.101500000000     0.062500000000     0.483400000000    -0.500389   
O61      O      0.015410000000     0.959220000000     0.541230000000    -0.504856   
O62      O      0.038780000000     0.030710000000     0.420740000000    -0.63713    
O63      O      0.088560000000     0.976760000000     0.505090000000    -0.630557   
O64      O      0.964980000000     0.011840000000     0.456820000000    -0.49142    
O65      O      0.148800000000     0.459680000000     0.025230000000    -0.371566   
O66      O      0.146980000000     0.459030000000     0.965070000000    -0.371455   
O67      O      0.915100000000     0.437810000000     0.017370000000    -0.372226   
O68      O      0.942780000000     0.505300000000     0.037090000000    -0.364133   
O69      O      0.003160000000     0.384930000000     0.973920000000    -0.37365    
O70      O      0.053840000000     0.413630000000     0.928070000000    -0.370126   
O71      O      0.091810000000     0.519530000000     0.094370000000    -0.379196   
O72      O      0.042900000000     0.550970000000     0.082610000000    -0.377207   
O73      O      0.085030000000     0.436300000000     0.083220000000    -0.346252   
O74      O      0.189060000000     0.539220000000     0.067810000000    -0.527518   
O75      O      0.941400000000     0.373440000000     0.027560000000    -0.520929   
O76      O      0.912280000000     0.400330000000     0.943360000000    -0.358704   
O77      O      0.062060000000     0.454160000000     0.993700000000    -0.495269   
O78      O      0.024710000000     0.483070000000     0.034070000000    -0.633426   
O79      O      0.131940000000     0.661130000000     0.992660000000    -0.382632   
O80      O      0.068810000000     0.630070000000     0.029700000000    -0.364678   
O81      O      0.053620000000     0.544790000000     0.864960000000    -0.373808   
O82      O      0.090040000000     0.501900000000     0.874640000000    -0.377285   
O83      O      0.971910000000     0.580940000000     0.932940000000    -0.3708     
O84      O      0.976150000000     0.583910000000     0.992950000000    -0.367525   
O85      O      0.207580000000     0.606950000000     0.936960000000    -0.371797   
O86      O      0.180710000000     0.538530000000     0.919400000000    -0.36681    
O87      O      0.174090000000     0.668860000000     0.928100000000    -0.518415   
O88      O      0.217230000000     0.640550000000     0.010600000000    -0.356487   
O89      O      0.014200000000     0.597530000000     0.871880000000    -0.335143   
O90      O      0.937720000000     0.491030000000     0.890390000000    -0.528112   
O91      O      0.061780000000     0.589360000000     0.963360000000    -0.633343   
O92      O      0.098210000000     0.560130000000     0.924070000000    -0.494367   
O93      O      0.109870000000     0.568950000000     0.026050000000    -0.498832   
O94      O      0.013640000000     0.473730000000     0.930900000000    -0.632125   
O95      O      0.145200000000     0.537560000000     0.985770000000    -0.631239   
O96      O      0.978410000000     0.505660000000     0.972480000000    -0.490311   
O97      O      0.024300000000     0.375000000000     0.515480000000    -0.371326   
O98      O      0.016000000000     0.371840000000     0.455360000000    -0.370281   
O99      O      0.895100000000     0.478380000000     0.522490000000    -0.388371   
O100     O      0.955810000000     0.547350000000     0.532940000000    -0.364459   
O101     O      0.883200000000     0.378100000000     0.454380000000    -0.378402   
O102     O      0.933430000000     0.370100000000     0.420870000000    -0.36378    
O103     O      0.050910000000     0.481390000000     0.584860000000    -0.379082   
O104     O      0.043030000000     0.543230000000     0.575210000000    -0.375789   
O105     O      0.999590000000     0.391910000000     0.577980000000    -0.333371   
O106     O      0.118370000000     0.453440000000     0.550570000000    -0.528823   
O107     O      0.866680000000     0.388680000000     0.522790000000    -0.520471   
O108     O      0.852250000000     0.449690000000     0.447650000000    -0.355928   
O109     O      0.975460000000     0.417680000000     0.485960000000    -0.495199   
O110     O      0.984230000000     0.475340000000     0.526970000000    -0.632557   
O111     O      0.158700000000     0.610220000000     0.488880000000    -0.37818    
O112     O      0.107760000000     0.619000000000     0.521010000000    -0.367041   
O113     O      0.983990000000     0.505250000000     0.356340000000    -0.376852   
O114     O      0.996470000000     0.445860000000     0.366060000000    -0.373479   
O115     O      0.005550000000     0.610550000000     0.425850000000    -0.371918   
O116     O      0.019090000000     0.615060000000     0.485840000000    -0.369851   
O117     O      0.143310000000     0.515260000000     0.413900000000    -0.381036   
O118     O      0.085930000000     0.443920000000     0.407930000000    -0.371839   
O119     O      0.177560000000     0.603360000000     0.421980000000    -0.517473   
O120     O      0.186350000000     0.535400000000     0.492390000000    -0.34899    
O121     O      0.049310000000     0.598780000000     0.366280000000    -0.34314    
O122     O      0.924440000000     0.538550000000     0.386250000000    -0.525567   
O123     O      0.065130000000     0.572080000000     0.454780000000    -0.635593   
O124     O      0.056210000000     0.514150000000     0.413870000000    -0.497321   
O125     O      0.085560000000     0.525110000000     0.515760000000    -0.491463   
O126     O      0.955110000000     0.464480000000     0.425570000000    -0.628782   
O127     O      0.076940000000     0.465840000000     0.474440000000    -0.63332    
O128     O      0.964000000000     0.523560000000     0.466750000000    -0.498776   
O129     O      0.448300000000     0.058350000000     0.938630000000    -0.376391   
O130     O      0.425440000000     0.018040000000     0.991920000000    -0.368287   
O131     O      0.546470000000     0.924750000000     0.908100000000    -0.370205   
O132     O      0.625870000000     0.979380000000     0.907070000000    -0.364083   
O133     O      0.422980000000     0.904430000000     0.972570000000    -0.380983   
O134     O      0.419960000000     0.937930000000     0.019260000000    -0.370213   
O135     O      0.560470000000     0.075100000000     0.864300000000    -0.380661   
O136     O      0.629290000000     0.068300000000     0.871370000000    -0.372407   
O137     O      0.459300000000     0.038380000000     0.872190000000    -0.337369   
O138     O      0.543000000000     0.137290000000     0.906300000000    -0.53039    
O139     O      0.448320000000     0.913600000000     0.898620000000    -0.523363   
O140     O      0.493570000000     0.868490000000     0.971050000000    -0.347572   
O141     O      0.478500000000     0.993140000000     0.954910000000    -0.496767   
O142     O      0.547020000000     0.008370000000     0.914020000000    -0.632669   
O143     O      0.700880000000     0.147010000000     0.976800000000    -0.38257    
O144     O      0.706080000000     0.112770000000     0.931480000000    -0.365654   
O145     O      0.565930000000     0.975960000000     0.085770000000    -0.37582    
O146     O      0.495730000000     0.980480000000     0.078030000000    -0.371374   
O147     O      0.673870000000     0.986640000000     0.009190000000    -0.371289   
O148     O      0.699260000000     0.029900000000     0.957370000000    -0.371287   
O149     O      0.579600000000     0.122940000000     0.045100000000    -0.367855   
O150     O      0.500110000000     0.068610000000     0.046290000000    -0.372589   
O151     O      0.678440000000     0.136270000000     0.051100000000    -0.524844   
O152     O      0.629090000000     0.180400000000     0.980810000000    -0.349896   
O153     O      0.668720000000     0.012190000000     0.076100000000    -0.338515   
O154     O      0.581530000000     0.912200000000     0.045440000000    -0.532356   
O155     O      0.646810000000     0.056670000000     0.995510000000    -0.633083   
O156     O      0.578250000000     0.040580000000     0.036660000000    -0.497425   
O157     O      0.606370000000     0.094630000000     0.939840000000    -0.500203   
O158     O      0.519310000000     0.955320000000     0.010640000000    -0.632493   
O159     O      0.536710000000     0.077150000000     0.981000000000    -0.632005   
O160     O      0.588580000000     0.973030000000     0.968730000000    -0.490769   
O161     O      0.599640000000     0.134600000000     0.427940000000    -0.377416   
O162     O      0.619700000000     0.139970000000     0.487360000000    -0.368828   
O163     O      0.370830000000     0.947030000000     0.460680000000    -0.375676   
O164     O      0.389730000000     0.908950000000     0.426700000000    -0.37327    
O165     O      0.473840000000     0.084510000000     0.499340000000    -0.363671   
O166     O      0.543480000000     0.105740000000     0.535210000000    -0.368975   
O167     O      0.540350000000     0.014420000000     0.363810000000    -0.366806   
O168     O      0.474580000000     0.946720000000     0.373530000000    -0.371832   
O169     O      0.504800000000     0.084120000000     0.375170000000    -0.363618   
O170     O      0.620320000000     0.100100000000     0.375170000000    -0.520831   
O171     O      0.401610000000     0.041120000000     0.439610000000    -0.525839   
O172     O      0.391480000000     0.998100000000     0.526070000000    -0.350002   
O173     O      0.526120000000     0.067340000000     0.465900000000    -0.494655   
O174     O      0.472280000000     0.002470000000     0.426050000000    -0.63333    
O175     O      0.589030000000     0.924840000000     0.442150000000    -0.37016    
O176     O      0.510440000000     0.893830000000     0.418380000000    -0.367841   
O177     O      0.533550000000     0.983230000000     0.593270000000    -0.382435   
O178     O      0.590790000000     0.054280000000     0.579250000000    -0.369806   
O179     O      0.452170000000     0.866310000000     0.525980000000    -0.371437   
O180     O      0.433930000000     0.861690000000     0.466280000000    -0.366763   
O181     O      0.685650000000     0.049900000000     0.497630000000    -0.379926   
O182     O      0.666850000000     0.092240000000     0.526730000000    -0.369741   
O183     O      0.644510000000     0.950650000000     0.513150000000    -0.526096   
O184     O      0.672580000000     0.011400000000     0.430840000000    -0.338794   
O185     O      0.538460000000     0.904440000000     0.576860000000    -0.349974   
O186     O      0.431800000000     0.913000000000     0.575390000000    -0.527508   
O187     O      0.530460000000     0.933780000000     0.487580000000    -0.630556   
O188     O      0.583020000000     0.998410000000     0.526580000000    -0.500208   
O189     O      0.557360000000     0.991010000000     0.424440000000    -0.49582    
O190     O      0.498620000000     0.010590000000     0.529220000000    -0.631705   
O191     O      0.608410000000     0.057060000000     0.462040000000    -0.632046   
O192     O      0.447660000000     0.944510000000     0.490670000000    -0.49906    
O193     O      0.573700000000     0.409580000000     0.028640000000    -0.37816    
O194     O      0.547000000000     0.392690000000     0.971410000000    -0.364412   
O195     O      0.440390000000     0.526360000000     0.013260000000    -0.384086   
O196     O      0.504810000000     0.591810000000     0.027950000000    -0.368802   
O197     O      0.417820000000     0.416800000000     0.951110000000    -0.379468   
O198     O      0.469000000000     0.400050000000     0.926800000000    -0.370055   
O199     O      0.602140000000     0.524250000000     0.088890000000    -0.369711   
O200     O      0.591050000000     0.584120000000     0.076050000000    -0.374034   
O201     O      0.508280000000     0.427290000000     0.078870000000    -0.359894   
O202     O      0.631460000000     0.464420000000     0.079130000000    -0.517052   
O203     O      0.414120000000     0.428660000000     0.029580000000    -0.529063   
O204     O      0.390920000000     0.481250000000     0.951960000000    -0.341689   
O205     O      0.510970000000     0.446120000000     0.993990000000    -0.499991   
O206     O      0.523380000000     0.511450000000     0.030790000000    -0.629016   
O207     O      0.708280000000     0.626990000000     0.005030000000    -0.375711   
O208     O      0.657210000000     0.646180000000     0.026320000000    -0.368232   
O209     O      0.552850000000     0.535930000000     0.861520000000    -0.382624   
O210     O      0.546870000000     0.468320000000     0.875150000000    -0.370075   
O211     O      0.548990000000     0.636250000000     0.924710000000    -0.366676   
O212     O      0.577890000000     0.653820000000     0.981460000000    -0.369855   
O213     O      0.685910000000     0.522370000000     0.936390000000    -0.383086   
O214     O      0.622000000000     0.455430000000     0.924370000000    -0.369663   
O215     O      0.713790000000     0.621070000000     0.924830000000    -0.534524   
O216     O      0.734820000000     0.563190000000     0.999750000000    -0.337883   
O217     O      0.609630000000     0.630640000000     0.873900000000    -0.347194   
O218     O      0.482800000000     0.565350000000     0.876670000000    -0.530392   
O219     O      0.616000000000     0.601190000000     0.958350000000    -0.635597   
O220     O      0.602610000000     0.535910000000     0.922410000000    -0.496746   
O221     O      0.624990000000     0.552560000000     0.022310000000    -0.494709   
O222     O      0.501290000000     0.494590000000     0.929540000000    -0.631317   
O223     O      0.613640000000     0.489440000000     0.986760000000    -0.633701   
O224     O      0.512680000000     0.557720000000     0.966120000000    -0.502689   
O225     O      0.528510000000     0.378270000000     0.501850000000    -0.378117   
O226     O      0.534790000000     0.391300000000     0.441760000000    -0.370084   
O227     O      0.377170000000     0.468140000000     0.494300000000    -0.37615    
O228     O      0.428330000000     0.530540000000     0.521870000000    -0.365203   
O229     O      0.404950000000     0.409500000000     0.406290000000    -0.383521   
O230     O      0.471830000000     0.406150000000     0.393000000000    -0.366619   
O231     O      0.503840000000     0.448570000000     0.583860000000    -0.37045    
O232     O      0.496870000000     0.510760000000     0.579320000000    -0.376473   
O233     O      0.453210000000     0.366030000000     0.548970000000    -0.350996   
O234     O      0.580420000000     0.428230000000     0.565950000000    -0.527037   
O235     O      0.363720000000     0.380860000000     0.478590000000    -0.526619   
O236     O      0.363590000000     0.465320000000     0.418730000000    -0.336403   
O237     O      0.478080000000     0.423440000000     0.468420000000    -0.500464   
O238     O      0.463960000000     0.464100000000     0.514760000000    -0.632035   
O239     O      0.645050000000     0.588610000000     0.540570000000    -0.373652   
O240     O      0.580340000000     0.596060000000     0.552760000000    -0.36558    
O241     O      0.544920000000     0.554830000000     0.360860000000    -0.378601   
O242     O      0.551390000000     0.492380000000     0.365020000000    -0.375201   
O243     O      0.519770000000     0.625090000000     0.443070000000    -0.370382   
O244     O      0.516290000000     0.613040000000     0.503400000000    -0.373449   
O245     O      0.672020000000     0.541240000000     0.443960000000    -0.380653   
O246     O      0.622370000000     0.476690000000     0.419040000000    -0.373494   
O247     O      0.690320000000     0.623810000000     0.472560000000    -0.529708   
O248     O      0.684970000000     0.531410000000     0.521810000000    -0.357538   
O249     O      0.599340000000     0.638270000000     0.397590000000    -0.347553   
O250     O      0.472440000000     0.578910000000     0.378460000000    -0.529213   
O251     O      0.573150000000     0.580410000000     0.476270000000    -0.635181   
O252     O      0.586590000000     0.539980000000     0.429540000000    -0.496116   
O253     O      0.566150000000     0.512860000000     0.530090000000    -0.492784   
O254     O      0.484690000000     0.491660000000     0.414410000000    -0.634895   
O255     O      0.581290000000     0.472480000000     0.483890000000    -0.633684   
O256     O      0.469390000000     0.531000000000     0.460790000000    -0.497199   
Zr1      Zr     0.153960000000     0.057570000000     0.957330000000     1.38221    
Zr2      Zr     0.042110000000     0.079540000000     0.929910000000     1.37715    
Zr3      Zr     0.072240000000     0.957370000000     0.025140000000     1.37786    
Zr4      Zr     0.960250000000     0.978830000000     0.997780000000     1.3885     
Zr5      Zr     0.085090000000     0.070810000000     0.026960000000     1.37587    
Zr6      Zr     0.029080000000     0.965970000000     0.928260000000     1.37727    
Zr7      Zr     0.013420000000     0.909780000000     0.502710000000     1.37014    
Zr8      Zr     0.965010000000     0.962380000000     0.419390000000     1.37829    
Zr9      Zr     0.089840000000     0.027340000000     0.541970000000     1.37449    
Zr10     Zr     0.039000000000     0.079010000000     0.459400000000     1.37509    
Zr11     Zr     0.099730000000     0.012070000000     0.445960000000     1.37612    
Zr12     Zr     0.954230000000     0.977330000000     0.516000000000     1.37979    
Zr13     Zr     0.108160000000     0.499920000000     0.039770000000     1.37994    
Zr14     Zr     0.979560000000     0.438200000000     0.986660000000     1.38159    
Zr15     Zr     0.144670000000     0.605230000000     0.970790000000     1.38089    
Zr16     Zr     0.014610000000     0.542460000000     0.918080000000     1.36905    
Zr17     Zr     0.097850000000     0.491830000000     0.939030000000     1.36994    
Zr18     Zr     0.026320000000     0.552030000000     0.018510000000     1.36634    
Zr19     Zr     0.040230000000     0.447680000000     0.529760000000     1.3744     
Zr20     Zr     0.921110000000     0.446720000000     0.481910000000     1.39202    
Zr21     Zr     0.119380000000     0.542840000000     0.459220000000     1.38485    
Zr22     Zr     0.000090000000     0.541740000000     0.411040000000     1.37353    
Zr23     Zr     0.011770000000     0.436820000000     0.429930000000     1.36398    
Zr24     Zr     0.029080000000     0.552860000000     0.511100000000     1.36621    
Zr25     Zr     0.522270000000     0.061140000000     0.920640000000     1.37779    
Zr26     Zr     0.504660000000     0.941370000000     0.949500000000     1.38114    
Zr27     Zr     0.620150000000     0.108020000000     0.001290000000     1.37887    
Zr28     Zr     0.603420000000     0.988350000000     0.029300000000     1.37919    
Zr29     Zr     0.494430000000     0.008660000000     0.015950000000     1.37284    
Zr30     Zr     0.631400000000     0.041520000000     0.934170000000     1.36803    
Zr31     Zr     0.553670000000     0.057530000000     0.413910000000     1.37321    
Zr32     Zr     0.446060000000     0.011860000000     0.479390000000     1.37732    
Zr33     Zr     0.610350000000     0.989560000000     0.473530000000     1.37866    
Zr34     Zr     0.501650000000     0.943560000000     0.539270000000     1.37556    
Zr35     Zr     0.579720000000     0.065400000000     0.514890000000     1.37418    
Zr36     Zr     0.476700000000     0.935880000000     0.438430000000     1.37563    
Zr37     Zr     0.573230000000     0.477100000000     0.039550000000     1.37608    
Zr38     Zr     0.463090000000     0.482060000000     0.983680000000     1.3862     
Zr39     Zr     0.663590000000     0.564930000000     0.968780000000     1.38712    
Zr40     Zr     0.552960000000     0.570500000000     0.913330000000     1.38061    
Zr41     Zr     0.551220000000     0.459710000000     0.940270000000     1.36628    
Zr42     Zr     0.575380000000     0.587390000000     0.011910000000     1.37263    
Zr43     Zr     0.519500000000     0.435770000000     0.525650000000     1.38247    
Zr44     Zr     0.424460000000     0.453470000000     0.456890000000     1.38341    
Zr45     Zr     0.626290000000     0.549780000000     0.487270000000     1.37994    
Zr46     Zr     0.531300000000     0.568710000000     0.419290000000     1.377      
Zr47     Zr     0.539560000000     0.462280000000     0.426460000000     1.37654    
Zr48     Zr     0.511160000000     0.541950000000     0.518120000000     1.37236    


