data_structure

_audit_creation_method RASPA-1.0
_audit_creation_date 2023-6-4
_audit_author_name 'Poobodin Mano'

_cell_length_a    22.7596
_cell_length_b    25.0664
_cell_length_c    25.5206
_cell_angle_alpha 82.7287
_cell_angle_beta  96.3503
_cell_angle_gamma 119.44
_cell_volume      12557.8

_symmetry_cell_setting          triclinic
_symmetry_space_group_name_Hall 'P 1'
_symmetry_space_group_name_H-M  'P 1'
_symmetry_Int_Tables_number     1

_symmetry_equiv_pos_as_xyz 'x,y,z'

loop_
_atom_site_label
_atom_site_type_symbol
_atom_site_fract_x
_atom_site_fract_y
_atom_site_fract_z
_atom_site_charge
C1       C      0.227110000000     0.172390000000     0.026620000000     0.425883   
C2       C      0.947980000000     0.945330000000     0.808950000000     0.396823   
C3       C      0.079740000000     0.203900000000     0.950990000000     0.421051   
C4       C      0.130140000000     0.910190000000     0.923920000000     0.392387   
C5       C      0.982120000000     0.790360000000     0.029770000000     0.418585   
C6       C      0.912910000000     0.068700000000     0.079390000000     0.389757   
C7       C      0.811130000000     0.816170000000     0.967740000000     0.417775   
C8       C      0.082490000000     0.040680000000     0.176910000000     0.398343   
C9       C      0.097340000000     0.857290000000     0.451480000000     0.390138   
C10      C      0.799030000000     0.960950000000     0.416410000000     0.398357   
C11      C      0.096850000000     0.017210000000     0.319640000000     0.393488   
C12      C      0.819220000000     0.821210000000     0.565710000000     0.395688   
C13      C      0.935330000000     0.969250000000     0.666750000000     0.397927   
C14      C      0.222990000000     0.170600000000     0.426490000000     0.391698   
C15      C      0.938830000000     0.133020000000     0.531760000000     0.396981   
C16      C      0.243100000000     0.055200000000     0.570700000000     0.405694   
C17      C      0.093330000000     0.338630000000     0.988330000000     0.411664   
C18      C      0.853630000000     0.486030000000     0.062570000000     0.407661   
C19      C      0.885990000000     0.299460000000     0.917620000000     0.394189   
C20      C      0.056760000000     0.494010000000     0.178670000000     0.410201   
C21      C      0.190960000000     0.683360000000     0.071470000000     0.407517   
C22      C      0.021460000000     0.507900000000     0.800870000000     0.415536   
C23      C      0.977460000000     0.655690000000     0.993010000000     0.41718    
C24      C      0.207940000000     0.516250000000     0.900940000000     0.394289   
C25      C      0.967450000000     0.283580000000     0.547020000000     0.391521   
C26      C      0.856840000000     0.561770000000     0.480040000000     0.407488   
C27      C      0.852240000000     0.298900000000     0.455250000000     0.410895   
C28      C      0.995780000000     0.538440000000     0.659680000000     0.418964   
C29      C      0.179080000000     0.684410000000     0.549920000000     0.411799   
C30      C      0.056240000000     0.457780000000     0.321190000000     0.410599   
C31      C      0.064370000000     0.705870000000     0.432480000000     0.382875   
C32      C      0.175000000000     0.435020000000     0.486680000000     0.393418   
C33      C      0.301030000000     0.967120000000     0.922010000000     0.405185   
C34      C      0.585570000000     0.856200000000     0.950350000000     0.392953   
C35      C      0.304940000000     0.838240000000     0.055670000000     0.389573   
C36      C      0.593510000000     0.022170000000     0.818550000000     0.397481   
C37      C      0.724310000000     0.170800000000     0.922890000000     0.394535   
C38      C      0.445260000000     0.978370000000     0.168660000000     0.399331   
C39      C      0.735200000000     0.023400000000     0.067100000000     0.401397   
C40      C      0.456100000000     0.146660000000     0.042300000000     0.398929   
C41      C      0.567530000000     0.203940000000     0.453570000000     0.412128   
C42      C      0.313980000000     0.811810000000     0.479750000000     0.421844   
C43      C      0.399810000000     0.086910000000     0.559770000000     0.413804   
C44      C      0.455480000000     0.948710000000     0.309690000000     0.400742   
C45      C      0.624780000000     0.920560000000     0.410170000000     0.389841   
C46      C      0.575440000000     0.042850000000     0.676240000000     0.399857   
C47      C      0.457800000000     0.784810000000     0.533080000000     0.41112    
C48      C      0.721750000000     0.170940000000     0.525630000000     0.414738   
C49      C      0.491620000000     0.297550000000     0.058910000000     0.394286   
C50      C      0.360520000000     0.558800000000     0.983600000000     0.408531   
C51      C      0.368460000000     0.300520000000     0.968370000000     0.411659   
C52      C      0.501970000000     0.548500000000     0.163450000000     0.41574    
C53      C      0.683560000000     0.696350000000     0.044980000000     0.407307   
C54      C      0.552390000000     0.458050000000     0.824800000000     0.409998   
C55      C      0.556310000000     0.705540000000     0.933060000000     0.389301   
C56      C      0.694130000000     0.451250000000     0.989350000000     0.394196   
C57      C      0.581820000000     0.341810000000     0.490900000000     0.409872   
C58      C      0.329870000000     0.473000000000     0.565700000000     0.409319   
C59      C      0.381280000000     0.301510000000     0.419100000000     0.399936   
C60      C      0.530550000000     0.486940000000     0.682700000000     0.411513   
C61      C      0.660110000000     0.691460000000     0.571760000000     0.393495   
C62      C      0.518000000000     0.516740000000     0.305180000000     0.415609   
C63      C      0.449460000000     0.649170000000     0.497440000000     0.410732   
C64      C      0.703030000000     0.528290000000     0.407450000000     0.400813   
H1       H      0.075760000000     0.999120000000     0.872070000000     0.204063   
H2       H      0.948770000000     0.087710000000     0.975090000000     0.195824   
H3       H      0.909990000000     0.856520000000     0.036890000000     0.198095   
H4       H      0.153400000000     0.045600000000     0.081740000000     0.194178   
H5       H      0.922370000000     0.117950000000     0.879220000000     0.137643   
H6       H      0.785590000000     0.973490000000     0.932500000000     0.211309   
H7       H      0.789900000000     0.891740000000     0.087690000000     0.139909   
H8       H      0.908260000000     0.853670000000     0.148900000000     0.189374   
H9       H      0.159210000000     0.929830000000     0.099220000000     0.138765   
H10      H      0.268660000000     0.030450000000     0.035150000000     0.202483   
H11      H      0.216610000000     0.121260000000     0.886120000000     0.142407   
H12      H      0.111020000000     0.111950000000     0.814310000000     0.195206   
H13      H      0.970790000000     0.846920000000     0.184830000000     0.205482   
H14      H      0.300570000000     0.079500000000     0.981810000000     0.206168   
H15      H      0.069390000000     0.152120000000     0.802570000000     0.203041   
H16      H      0.828370000000     0.040400000000     0.959960000000     0.203459   
H17      H      0.862400000000     0.891800000000     0.450490000000     0.198251   
H18      H      0.094410000000     0.093930000000     0.392410000000     0.195108   
H19      H      0.012670000000     0.071310000000     0.590050000000     0.195185   
H20      H      0.102320000000     0.917320000000     0.544080000000     0.198403   
H21      H      0.001270000000     0.110870000000     0.333510000000     0.125861   
H22      H      0.031710000000     0.191540000000     0.402690000000     0.198187   
H23      H      0.184330000000     0.178860000000     0.563190000000     0.141807   
H24      H      0.127880000000     0.102440000000     0.661150000000     0.193033   
H25      H      0.035250000000     0.876440000000     0.652110000000     0.139286   
H26      H      0.009400000000     0.796300000000     0.580310000000     0.195431   
H27      H      0.912990000000     0.812040000000     0.400480000000     0.14805    
H28      H      0.853380000000     0.884590000000     0.339120000000     0.198641   
H29      H      0.134760000000     0.046840000000     0.700510000000     0.205846   
H30      H      0.941020000000     0.744750000000     0.547500000000     0.207666   
H31      H      0.924930000000     0.902430000000     0.311730000000     0.205497   
H32      H      0.099170000000     0.244070000000     0.435550000000     0.208271   
H33      H      0.951150000000     0.432130000000     0.100210000000     0.197568   
H34      H      0.923480000000     0.443240000000     0.883200000000     0.198129   
H35      H      0.106500000000     0.652110000000     0.978930000000     0.201497   
H36      H      0.158560000000     0.461250000000     0.994580000000     0.208823   
H37      H      0.772730000000     0.380010000000     0.931970000000     0.146021   
H38      H      0.863350000000     0.537430000000     0.871520000000     0.212997   
H39      H      0.124470000000     0.672430000000     0.868910000000     0.132684   
H40      H      0.260060000000     0.692380000000     0.918640000000     0.194486   
H41      H      0.285480000000     0.594860000000     0.056140000000     0.150912   
H42      H      0.202640000000     0.449480000000     0.109850000000     0.205524   
H43      H      0.939420000000     0.316050000000     0.099800000000     0.126782   
H44      H      0.818450000000     0.298210000000     0.064140000000     0.189011   
H45      H      0.309830000000     0.688160000000     0.970670000000     0.208506   
H46      H      0.151600000000     0.400790000000     0.156480000000     0.208534   
H47      H      0.761450000000     0.308270000000     0.022880000000     0.201941   
H48      H      0.912740000000     0.587100000000     0.824460000000     0.210594   
H49      H      0.891700000000     0.475760000000     0.565630000000     0.191784   
H50      H      0.943220000000     0.442570000000     0.368730000000     0.194277   
H51      H      0.129230000000     0.637670000000     0.465870000000     0.199502   
H52      H      0.085490000000     0.411660000000     0.554520000000     0.202213   
H53      H      0.817720000000     0.415580000000     0.352210000000     0.130628   
H54      H      0.943930000000     0.586010000000     0.322060000000     0.210667   
H55      H      0.186950000000     0.640540000000     0.378240000000     0.129726   
H56      H      0.283330000000     0.618660000000     0.475500000000     0.203888   
H57      H      0.212860000000     0.550230000000     0.626050000000     0.144498   
H58      H      0.071230000000     0.407590000000     0.670710000000     0.204764   
H59      H      0.833710000000     0.358990000000     0.585520000000     0.13143    
H60      H      0.734650000000     0.384530000000     0.488310000000     0.204709   
H61      H      0.298610000000     0.621620000000     0.541060000000     0.21219    
H62      H      0.993430000000     0.366610000000     0.693050000000     0.210883   
H63      H      0.729730000000     0.369890000000     0.425320000000     0.204786   
H64      H      0.984290000000     0.567340000000     0.282980000000     0.207494   
H65      H      0.514960000000     0.921880000000     0.896340000000     0.189549   
H66      H      0.439760000000     0.901840000000     0.094870000000     0.196568   
H67      H      0.678570000000     0.097260000000     0.035980000000     0.194097   
H68      H      0.444910000000     0.087570000000     0.946700000000     0.190735   
H69      H      0.452940000000     0.799650000000     0.092150000000     0.129319   
H70      H      0.565910000000     0.876560000000     0.143730000000     0.198682   
H71      H      0.621950000000     0.102820000000     0.151180000000     0.14313    
H72      H      0.703360000000     0.194210000000     0.063990000000     0.188284   
H73      H      0.551800000000     0.194220000000     0.901640000000     0.133251   
H74      H      0.493960000000     0.118390000000     0.818920000000     0.201473   
H75      H      0.404480000000     0.896190000000     0.836750000000     0.1292     
H76      H      0.337610000000     0.809790000000     0.919730000000     0.199044   
H77      H      0.653420000000     0.224290000000     0.069950000000     0.203135   
H78      H      0.416770000000     0.093450000000     0.839710000000     0.197298   
H79      H      0.392630000000     0.786530000000     0.909620000000     0.1972     
H80      H      0.587300000000     0.921200000000     0.193670000000     0.211385   
H81      H      0.385790000000     0.947130000000     0.396880000000     0.19839    
H82      H      0.447530000000     0.991240000000     0.607630000000     0.1942     
H83      H      0.581420000000     0.900100000000     0.515680000000     0.203296   
H84      H      0.629220000000     0.132570000000     0.451130000000     0.200458   
H85      H      0.303490000000     0.904830000000     0.596490000000     0.134075   
H86      H      0.385500000000     0.851070000000     0.642950000000     0.197248   
H87      H      0.641540000000     0.936110000000     0.637420000000     0.142888   
H88      H      0.706000000000     0.946850000000     0.530570000000     0.20346    
H89      H      0.752990000000     0.096060000000     0.410090000000     0.141109   
H90      H      0.636480000000     0.133800000000     0.338380000000     0.190822   
H91      H      0.402700000000     0.094290000000     0.380680000000     0.143865   
H92      H      0.295290000000     0.004030000000     0.431870000000     0.202795   
H93      H      0.736910000000     0.006900000000     0.567090000000     0.202331   
H94      H      0.576030000000     0.140010000000     0.298720000000     0.20647    
H95      H      0.273320000000     0.933580000000     0.416060000000     0.197588   
H96      H      0.446340000000     0.862970000000     0.690700000000     0.206397   
H97      H      0.403420000000     0.479630000000     0.074030000000     0.195438   
H98      H      0.449370000000     0.442800000000     0.877730000000     0.195511   
H99      H      0.632470000000     0.645280000000     0.965310000000     0.19877    
H100     H      0.605840000000     0.427170000000     0.059620000000     0.202248   
H101     H      0.320510000000     0.405930000000     0.865590000000     0.132396   
H102     H      0.509180000000     0.605860000000     0.788540000000     0.209017   
H103     H      0.691750000000     0.639570000000     0.882200000000     0.131311   
H104     H      0.795240000000     0.636500000000     0.975930000000     0.203053   
H105     H      0.722680000000     0.567430000000     0.128900000000     0.144021   
H106     H      0.601130000000     0.432290000000     0.175080000000     0.203908   
H107     H      0.354200000000     0.358830000000     0.098090000000     0.133636   
H108     H      0.247770000000     0.380180000000     0.005920000000     0.206097   
H109     H      0.811770000000     0.636610000000     0.041420000000     0.207986   
H110     H      0.526450000000     0.390680000000     0.202490000000     0.208309   
H111     H      0.239010000000     0.362490000000     0.943280000000     0.209215   
H112     H      0.437370000000     0.558780000000     0.818520000000     0.207573   
H113     H      0.435870000000     0.427810000000     0.602710000000     0.200215   
H114     H      0.410580000000     0.440320000000     0.386110000000     0.197978   
H115     H      0.579020000000     0.650870000000     0.482510000000     0.198381   
H116     H      0.650170000000     0.471160000000     0.499340000000     0.20558    
H117     H      0.257630000000     0.369440000000     0.437010000000     0.139721   
H118     H      0.340520000000     0.538960000000     0.383380000000     0.215697   
H119     H      0.592000000000     0.679960000000     0.373750000000     0.129584   
H120     H      0.728870000000     0.709120000000     0.429300000000     0.198869   
H121     H      0.781210000000     0.618200000000     0.547430000000     0.142816   
H122     H      0.696770000000     0.455170000000     0.601160000000     0.203818   
H123     H      0.443640000000     0.309910000000     0.601470000000     0.130608   
H124     H      0.314970000000     0.290050000000     0.565250000000     0.195153   
H125     H      0.787620000000     0.696220000000     0.465120000000     0.21094    
H126     H      0.660240000000     0.436300000000     0.658960000000     0.210384   
H127     H      0.253580000000     0.297830000000     0.528400000000     0.207828   
H128     H      0.372980000000     0.540280000000     0.327210000000     0.207413   
H129     H      0.514130000000     0.514140000000     0.748400000000     0.109354   
H130     H      0.545550000000     0.408190000000     0.762300000000     0.10829    
H131     H      0.504160000000     0.596750000000     0.225720000000     0.11051    
H132     H      0.545410000000     0.496860000000     0.240550000000     0.113154   
H133     H      0.407110000000     0.701620000000     0.462060000000     0.110266   
H134     H      0.445450000000     0.706260000000     0.579980000000     0.111156   
H135     H      0.578290000000     0.282560000000     0.407930000000     0.109511   
H136     H      0.617600000000     0.284460000000     0.526270000000     0.111721   
H137     H      0.591760000000     0.099020000000     0.735220000000     0.106098   
H138     H      0.648540000000     0.015760000000     0.761590000000     0.10621    
H139     H      0.439290000000     0.894270000000     0.249130000000     0.103683   
H140     H      0.385920000000     0.979670000000     0.224610000000     0.107411   
H141     H      0.658720000000     0.832580000000     0.940560000000     0.103308   
H142     H      0.555560000000     0.769110000000     0.873290000000     0.0985231  
H143     H      0.384840000000     0.169900000000     0.058080000000     0.101011   
H144     H      0.488110000000     0.234660000000     0.120320000000     0.099201   
H145     H      0.828610000000     0.207700000000     0.466690000000     0.116822   
H146     H      0.777430000000     0.262420000000     0.538840000000     0.110178   
H147     H      0.262430000000     0.718580000000     0.473710000000     0.0992219  
H148     H      0.210100000000     0.777090000000     0.540470000000     0.116994   
H149     H      0.830950000000     0.623410000000     0.434870000000     0.102836   
H150     H      0.767080000000     0.492480000000     0.407960000000     0.102893   
H151     H      0.207540000000     0.379670000000     0.533950000000     0.100517   
H152     H      0.271180000000     0.514990000000     0.549930000000     0.0992189  
H153     H      0.006830000000     0.588220000000     0.723420000000     0.108806   
H154     H      0.033800000000     0.479250000000     0.734190000000     0.113314   
H155     H      0.059290000000     0.411890000000     0.259380000000     0.107043   
H156     H      0.067860000000     0.538640000000     0.242750000000     0.110383   
H157     H      0.862870000000     0.218540000000     0.883850000000     0.103912   
H158     H      0.760560000000     0.255830000000     0.883290000000     0.103622   
H159     H      0.208140000000     0.803100000000     0.082610000000     0.112273   
H160     H      0.282710000000     0.733750000000     0.107630000000     0.105194   
H161     H      0.731180000000     0.396300000000     0.030470000000     0.0998354  
H162     H      0.799850000000     0.532970000000     0.045080000000     0.10527    
H163     H      0.269940000000     0.477920000000     0.919140000000     0.101317   
H164     H      0.331890000000     0.613430000000     0.930430000000     0.101602   
H165     H      0.786660000000     0.736700000000     0.606020000000     0.104796   
H166     H      0.681790000000     0.770550000000     0.608100000000     0.108422   
H167     H      0.360210000000     0.223010000000     0.382140000000     0.107915   
H168     H      0.254970000000     0.255370000000     0.387220000000     0.09797    
H169     H      0.737160000000     0.965530000000     0.352160000000     0.108856   
H170     H      0.667230000000     0.862720000000     0.428090000000     0.0972553  
H171     H      0.398820000000     0.162570000000     0.581500000000     0.103422   
H172     H      0.306740000000     0.088880000000     0.636580000000     0.0993931  
H173     H      0.074630000000     0.773690000000     0.373200000000     0.0993881  
H174     H      0.171460000000     0.833280000000     0.445710000000     0.0959637  
H175     H      0.863030000000     0.153920000000     0.539010000000     0.107948   
H176     H      0.958780000000     0.218160000000     0.607890000000     0.0992577  
H177     H      0.877080000000     0.974080000000     0.721870000000     0.107471   
H178     H      0.930120000000     0.888900000000     0.749740000000     0.108299   
H179     H      0.155990000000     0.015000000000     0.263680000000     0.105659   
H180     H      0.094340000000     0.094020000000     0.236960000000     0.107115   
H181     H      0.753890000000     0.723300000000     0.959430000000     0.093285   
H182     H      0.698200000000     0.783440000000     0.019510000000     0.12037    
H183     H      0.342270000000     0.208360000000     0.977420000000     0.105509   
H184     H      0.287680000000     0.260380000000     0.048680000000     0.109371   
H185     H      0.796460000000     0.013750000000     0.129270000000     0.111987   
H186     H      0.864010000000     0.119900000000     0.052880000000     0.0990848  
H187     H      0.243460000000     0.007400000000     0.907430000000     0.0918013  
H188     H      0.168600000000     0.888720000000     0.864060000000     0.107588   
H189     H      0.934210000000     0.707720000000     0.958700000000     0.111695   
H190     H      0.981570000000     0.715560000000     0.075420000000     0.11438    
H191     H      0.098840000000     0.284380000000     0.904590000000     0.107062   
H192     H      0.135360000000     0.285780000000     0.022830000000     0.111538   
N1       N      0.529830000000     0.485310000000     0.735570000000    -0.180713   
N2       N      0.546290000000     0.447360000000     0.773150000000    -0.179632   
N3       N      0.508310000000     0.559930000000     0.214920000000    -0.180227   
N4       N      0.526000000000     0.523140000000     0.252870000000    -0.180949   
N5       N      0.427850000000     0.690500000000     0.497650000000    -0.18031    
N6       N      0.441890000000     0.724990000000     0.541510000000    -0.17936    
N7       N      0.583480000000     0.263730000000     0.446010000000    -0.179865   
N8       N      0.599300000000     0.297790000000     0.490460000000    -0.181391   
N9       N      0.591650000000     0.059120000000     0.726950000000    -0.174411   
N10      N      0.612200000000     0.027730000000     0.768370000000    -0.174927   
N11      N      0.440940000000     0.934440000000     0.258540000000    -0.175138   
N12      N      0.423370000000     0.968950000000     0.218160000000    -0.175615   
N13      N      0.606640000000     0.815990000000     0.940550000000    -0.171562   
N14      N      0.564680000000     0.762270000000     0.913970000000    -0.170455   
N15      N      0.436420000000     0.186740000000     0.054350000000    -0.175551   
N16      N      0.481340000000     0.240760000000     0.079230000000    -0.170914   
N17      N      0.818550000000     0.241080000000     0.477700000000    -0.181606   
N18      N      0.775180000000     0.227380000000     0.518980000000    -0.182025   
N19      N      0.265130000000     0.754480000000     0.492630000000    -0.182869   
N20      N      0.221050000000     0.742920000000     0.532880000000    -0.181787   
N21      N      0.818080000000     0.577210000000     0.443780000000    -0.184896   
N22      N      0.764450000000     0.531560000000     0.414380000000    -0.183914   
N23      N      0.217440000000     0.424890000000     0.523350000000    -0.183695   
N24      N      0.271380000000     0.473610000000     0.549870000000    -0.182449   
N25      N      0.005980000000     0.549450000000     0.711480000000    -0.181152   
N26      N      0.021580000000     0.510030000000     0.747920000000    -0.181193   
N27      N      0.062820000000     0.452300000000     0.270140000000    -0.180092   
N28      N      0.065390000000     0.498900000000     0.231310000000    -0.180781   
N29      N      0.843670000000     0.241690000000     0.901560000000    -0.176262   
N30      N      0.773420000000     0.221300000000     0.896180000000    -0.172886   
N31      N      0.245740000000     0.792720000000     0.075830000000    -0.176331   
N32      N      0.237710000000     0.734380000000     0.094810000000    -0.175852   
N33      N      0.740530000000     0.441560000000     0.021290000000    -0.180765   
N34      N      0.797180000000     0.490140000000     0.045870000000    -0.182003   
N35      N      0.267490000000     0.518450000000     0.918440000000    -0.186679   
N36      N      0.320150000000     0.568500000000     0.944440000000    -0.186117   
N37      N      0.772030000000     0.770070000000     0.593170000000    -0.172087   
N38      N      0.701470000000     0.748340000000     0.589620000000    -0.176263   
N39      N      0.340470000000     0.244190000000     0.401930000000    -0.175923   
N40      N      0.269830000000     0.221940000000     0.399010000000    -0.172284   
N41      N      0.738100000000     0.948980000000     0.391830000000    -0.176449   
N42      N      0.675560000000     0.906470000000     0.412950000000    -0.182475   
N43      N      0.368400000000     0.116750000000     0.573000000000    -0.177542   
N44      N      0.305560000000     0.083870000000     0.596320000000    -0.171993   
N45      N      0.078980000000     0.764830000000     0.414190000000    -0.169171   
N46      N      0.119370000000     0.817250000000     0.442970000000    -0.171659   
N47      N      0.915390000000     0.172150000000     0.539430000000    -0.172493   
N48      N      0.955280000000     0.225730000000     0.566690000000    -0.168845   
N49      N      0.914230000000     0.962640000000     0.716300000000    -0.174597   
N50      N      0.931890000000     0.929520000000     0.758060000000    -0.173564   
N51      N      0.117180000000     0.024090000000     0.269730000000    -0.174889   
N52      N      0.096300000000     0.055250000000     0.228220000000    -0.173707   
N53      N      0.757420000000     0.760520000000     0.976750000000    -0.184206   
N54      N      0.714270000000     0.751310000000     0.016980000000    -0.184005   
N55      N      0.332250000000     0.241840000000     0.988280000000    -0.179337   
N56      N      0.284080000000     0.226850000000     0.025950000000    -0.182825   
N57      N      0.795930000000     0.033130000000     0.090510000000    -0.176549   
N58      N      0.858600000000     0.078060000000     0.071090000000    -0.18429    
N59      N      0.244310000000     0.967770000000     0.900370000000    -0.176994   
N60      N      0.180510000000     0.914330000000     0.896640000000    -0.180288   
N61      N      0.956850000000     0.697580000000     0.993660000000    -0.180028   
N62      N      0.972460000000     0.732380000000     0.037530000000    -0.180425   
N63      N      0.100640000000     0.264480000000     0.942910000000    -0.183609   
N64      N      0.115200000000     0.297920000000     0.987400000000    -0.183505   
O1       O      0.225060000000     0.133180000000     0.998220000000    -0.398492   
O2       O      0.177300000000     0.165020000000     0.051880000000    -0.376557   
O3       O      0.961830000000     0.999770000000     0.818920000000    -0.355856   
O4       O      0.951730000000     0.905110000000     0.844080000000    -0.37368    
O5       O      0.058580000000     0.171280000000     0.910820000000    -0.383116   
O6       O      0.080450000000     0.183000000000     0.999280000000    -0.376715   
O7       O      0.147450000000     0.936970000000     0.966470000000    -0.355799   
O8       O      0.069040000000     0.888780000000     0.903560000000    -0.357476   
O9       O      0.198320000000     0.076420000000     0.885450000000    -0.375136   
O10      O      0.262140000000     0.050380000000     0.001780000000    -0.518376   
O11      O      0.076670000000     0.120680000000     0.823380000000    -0.523147   
O12      O      0.915270000000     0.082460000000     0.861000000000    -0.344912   
O13      O      0.096910000000     0.092810000000     0.961970000000    -0.495633   
O14      O      0.061020000000     0.000750000000     0.905610000000    -0.635264   
O15      O      0.001830000000     0.823350000000     0.069760000000    -0.374054   
O16      O      0.972570000000     0.808960000000     0.982170000000    -0.378394   
O17      O      0.902500000000     0.013800000000     0.087210000000    -0.364013   
O18      O      0.971570000000     0.111820000000     0.066940000000    -0.364804   
O19      O      0.813450000000     0.858240000000     0.992370000000    -0.401213   
O20      O      0.859910000000     0.821650000000     0.941940000000    -0.373828   
O21      O      0.073200000000     0.988010000000     0.166040000000    -0.362519   
O22      O      0.076690000000     0.080270000000     0.142150000000    -0.371844   
O23      O      0.955090000000     0.863380000000     0.153540000000    -0.522768   
O24      O      0.126260000000     0.913780000000     0.127130000000    -0.339375   
O25      O      0.781190000000     0.911470000000     0.053830000000    -0.32143    
O26      O      0.820810000000     0.999450000000     0.956920000000    -0.52654    
O27      O      0.940600000000     0.897860000000     0.023490000000    -0.624626   
O28      O      0.976710000000     0.988680000000     0.077850000000    -0.477014   
O29      O      0.071410000000     0.933370000000     0.003580000000    -0.475006   
O30      O      0.967410000000     0.060080000000     0.979150000000    -0.627541   
O31      O      0.115060000000     0.029300000000     0.056540000000    -0.636487   
O32      O      0.924000000000     0.961750000000     0.926630000000    -0.494404   
O33      O      0.034220000000     0.834140000000     0.458870000000    -0.364023   
O34      O      0.141060000000     0.915620000000     0.453750000000    -0.364689   
O35      O      0.848430000000     0.980030000000     0.386140000000    -0.372669   
O36      O      0.804680000000     0.953750000000     0.467510000000    -0.365377   
O37      O      0.040590000000     0.016570000000     0.323420000000    -0.374863   
O38      O      0.134580000000     0.011990000000     0.359880000000    -0.364612   
O39      O      0.868180000000     0.815990000000     0.550390000000    -0.369742   
O40      O      0.815950000000     0.871900000000     0.559110000000    -0.352316   
O41      O      0.887360000000     0.800950000000     0.432640000000    -0.36808    
O42      O      0.973570000000     0.787010000000     0.553000000000    -0.517859   
O43      O      0.901460000000     0.910780000000     0.336140000000    -0.529132   
O44      O      0.958690000000     0.072730000000     0.326440000000    -0.326717   
O45      O      0.022750000000     0.941070000000     0.425580000000    -0.493542   
O46      O      0.907270000000     0.921820000000     0.462200000000    -0.626974   
O47      O      0.990240000000     0.967260000000     0.663270000000    -0.366739   
O48      O      0.900100000000     0.977920000000     0.626460000000    -0.371245   
O49      O      0.175720000000     0.176590000000     0.444100000000    -0.383847   
O50      O      0.222960000000     0.118520000000     0.428650000000    -0.349456   
O51      O      0.001890000000     0.157070000000     0.523710000000    -0.362337   
O52      O      0.896350000000     0.074290000000     0.531770000000    -0.356565   
O53      O      0.193270000000     0.037930000000     0.599940000000    -0.372028   
O54      O      0.236090000000     0.048810000000     0.520230000000    -0.342327   
O55      O      0.121420000000     0.061090000000     0.666730000000    -0.520449   
O56      O      0.082280000000     0.910370000000     0.649310000000    -0.353484   
O57      O      0.146520000000     0.188250000000     0.557110000000    -0.360939   
O58      O      0.066690000000     0.201600000000     0.430790000000    -0.521857   
O59      O      0.014740000000     0.049500000000     0.562310000000    -0.625768   
O60      O      0.127560000000     0.065800000000     0.525630000000    -0.493808   
O61      O      0.962370000000     0.922900000000     0.564770000000    -0.491985   
O62      O      0.073000000000     0.065810000000     0.422460000000    -0.625718   
O63      O      0.077960000000     0.938900000000     0.529770000000    -0.624189   
O64      O      0.960170000000     0.051050000000     0.458240000000    -0.489663   
O65      O      0.094140000000     0.356920000000     0.033610000000    -0.377132   
O66      O      0.073020000000     0.356010000000     0.944120000000    -0.371986   
O67      O      0.851630000000     0.434600000000     0.061600000000    -0.387261   
O68      O      0.909890000000     0.535900000000     0.069490000000    -0.354408   
O69      O      0.860970000000     0.320620000000     0.946810000000    -0.37585    
O70      O      0.947420000000     0.330320000000     0.902470000000    -0.35698    
O71      O      0.063020000000     0.451870000000     0.159800000000    -0.375263   
O72      O      0.043920000000     0.533960000000     0.150840000000    -0.393716   
O73      O      0.984880000000     0.324360000000     0.114710000000    -0.339798   
O74      O      0.157940000000     0.425290000000     0.123030000000    -0.520558   
O75      O      0.807860000000     0.321260000000     0.035000000000    -0.518142   
O76      O      0.810220000000     0.422590000000     0.934270000000    -0.358012   
O77      O      0.983160000000     0.385100000000     0.998190000000    -0.500106   
O78      O      0.974070000000     0.448840000000     0.067610000000    -0.623385   
O79      O      0.214510000000     0.661430000000     0.042280000000    -0.393083   
O80      O      0.127710000000     0.657890000000     0.081690000000    -0.353424   
O81      O      0.011110000000     0.546910000000     0.820750000000    -0.379717   
O82      O      0.032010000000     0.466000000000     0.827760000000    -0.388696   
O83      O      0.971640000000     0.633550000000     0.948500000000    -0.367624   
O84      O      0.002340000000     0.641360000000     0.036400000000    -0.371871   
O85      O      0.200290000000     0.562430000000     0.904810000000    -0.369996   
O86      O      0.155980000000     0.463320000000     0.894690000000    -0.360719   
O87      O      0.266100000000     0.671800000000     0.951770000000    -0.523621   
O88      O      0.254200000000     0.556410000000     0.039420000000    -0.362898   
O89      O      0.079490000000     0.669960000000     0.866550000000    -0.344837   
O90      O      0.907710000000     0.563080000000     0.858050000000    -0.523746   
O91      O      0.087010000000     0.607940000000     0.980930000000    -0.639654   
O92      O      0.093840000000     0.543660000000     0.912730000000    -0.482408   
O93      O      0.114030000000     0.532670000000     0.064820000000    -0.497041   
O94      O      0.953820000000     0.459350000000     0.913740000000    -0.628964   
O95      O      0.122510000000     0.471070000000     0.994220000000    -0.630086   
O96      O      0.946920000000     0.520450000000     0.985780000000    -0.48996    
O97      O      0.968330000000     0.319360000000     0.580120000000    -0.362467   
O98      O      0.980410000000     0.300740000000     0.497850000000    -0.336313   
O99      O      0.836930000000     0.505070000000     0.493200000000    -0.39524    
O100     O      0.915760000000     0.603240000000     0.495810000000    -0.364048   
O101     O      0.837890000000     0.338140000000     0.469720000000    -0.367631   
O102     O      0.905370000000     0.314440000000     0.430400000000    -0.365381   
O103     O      0.991610000000     0.487880000000     0.649890000000    -0.382638   
O104     O      0.994850000000     0.579090000000     0.623600000000    -0.379982   
O105     O      0.864380000000     0.358110000000     0.615900000000    -0.350063   
O106     O      0.023160000000     0.392850000000     0.665550000000    -0.52736    
O107     O      0.756490000000     0.389170000000     0.456390000000    -0.52466    
O108     O      0.840570000000     0.457850000000     0.363610000000    -0.364147   
O109     O      0.933380000000     0.395480000000     0.500100000000    -0.502117   
O110     O      0.924790000000     0.480140000000     0.542330000000    -0.606983   
O111     O      0.197350000000     0.645400000000     0.542090000000    -0.389325   
O112     O      0.118510000000     0.670690000000     0.558830000000    -0.36441    
O113     O      0.060090000000     0.508550000000     0.330410000000    -0.385852   
O114     O      0.042220000000     0.411880000000     0.356210000000    -0.383341   
O115     O      0.058790000000     0.669170000000     0.398060000000    -0.360393   
O116     O      0.054260000000     0.688790000000     0.482000000000    -0.338782   
O117     O      0.186980000000     0.489850000000     0.473020000000    -0.373745   
O118     O      0.117390000000     0.389860000000     0.473750000000    -0.370437   
O119     O      0.267220000000     0.606650000000     0.510820000000    -0.521957   
O120     O      0.184440000000     0.510880000000     0.609800000000    -0.368527   
O121     O      0.150750000000     0.637620000000     0.351440000000    -0.33761    
O122     O      0.977910000000     0.574710000000     0.317640000000    -0.526273   
O123     O      0.096610000000     0.595880000000     0.476060000000    -0.637875   
O124     O      0.100590000000     0.508670000000     0.436920000000    -0.471442   
O125     O      0.062180000000     0.527450000000     0.574660000000    -0.487075   
O126     O      0.963090000000     0.458450000000     0.402570000000    -0.613505   
O127     O      0.065960000000     0.435400000000     0.535210000000    -0.628423   
O128     O      0.960290000000     0.551940000000     0.444360000000    -0.494692   
O129     O      0.341370000000     0.968280000000     0.889780000000    -0.365814   
O130     O      0.318440000000     0.980630000000     0.970500000000    -0.369201   
O131     O      0.523260000000     0.833880000000     0.960930000000    -0.359558   
O132     O      0.630070000000     0.914310000000     0.950150000000    -0.361346   
O133     O      0.346710000000     0.823260000000     0.039480000000    -0.36295    
O134     O      0.316000000000     0.893970000000     0.054410000000    -0.365828   
O135     O      0.539730000000     0.025490000000     0.823420000000    -0.36788    
O136     O      0.629630000000     0.013160000000     0.857950000000    -0.37037    
O137     O      0.406210000000     0.935380000000     0.822010000000    -0.331293   
O138     O      0.456530000000     0.088890000000     0.839650000000    -0.533927   
O139     O      0.380050000000     0.809940000000     0.928770000000    -0.535887   
O140     O      0.453260000000     0.788030000000     0.056560000000    -0.335099   
O141     O      0.406490000000     0.934120000000     0.963510000000    -0.493965   
O142     O      0.515100000000     0.944210000000     0.924590000000    -0.618775   
O143     O      0.678190000000     0.179200000000     0.939100000000    -0.375412   
O144     O      0.722360000000     0.117690000000     0.927180000000    -0.351068   
O145     O      0.499780000000     0.976090000000     0.164360000000    -0.374604   
O146     O      0.410250000000     0.988560000000     0.129120000000    -0.369311   
O147     O      0.687050000000     0.004990000000     0.098330000000    -0.372003   
O148     O      0.728550000000     0.032080000000     0.016150000000    -0.365556   
O149     O      0.517650000000     0.168640000000     0.030500000000    -0.36374    
O150     O      0.411400000000     0.088970000000     0.042250000000    -0.381278   
O151     O      0.662110000000     0.196010000000     0.054090000000    -0.531193   
O152     O      0.576720000000     0.213020000000     0.934530000000    -0.331193   
O153     O      0.643570000000     0.076480000000     0.154770000000    -0.346897   
O154     O      0.576220000000     0.915090000000     0.156480000000    -0.524036   
O155     O      0.632640000000     0.069410000000     0.024630000000    -0.626711   
O156     O      0.525530000000     0.059100000000     0.064480000000    -0.499917   
O157     O      0.575060000000     0.072070000000     0.922100000000    -0.489481   
O158     O      0.463480000000     0.930040000000     0.065550000000    -0.632041   
O159     O      0.467520000000     0.063960000000     0.959370000000    -0.631027   
O160     O      0.570610000000     0.939100000000     0.026200000000    -0.48466    
O161     O      0.546700000000     0.171170000000     0.413330000000    -0.376533   
O162     O      0.572690000000     0.183570000000     0.501380000000    -0.372981   
O163     O      0.316780000000     0.853730000000     0.504990000000    -0.387053   
O164     O      0.357980000000     0.820300000000     0.447190000000    -0.372549   
O165     O      0.362140000000     0.032090000000     0.546990000000    -0.376828   
O166     O      0.465210000000     0.114910000000     0.561130000000    -0.361753   
O167     O      0.468660000000     0.002760000000     0.319850000000    -0.362886   
O168     O      0.457130000000     0.907500000000     0.344860000000    -0.378682   
O169     O      0.421850000000     0.085280000000     0.352130000000    -0.344034   
O170     O      0.589970000000     0.124660000000     0.331650000000    -0.523493   
O171     O      0.300760000000     0.967820000000     0.437200000000    -0.531113   
O172     O      0.285570000000     0.916290000000     0.562360000000    -0.322502   
O173     O      0.463950000000     0.060870000000     0.477370000000    -0.503781   
O174     O      0.422020000000     0.963300000000     0.423780000000    -0.634308   
O175     O      0.639930000000     0.976850000000     0.404110000000    -0.364128   
O176     O      0.565080000000     0.879170000000     0.422520000000    -0.366124   
O177     O      0.563930000000     0.989070000000     0.666500000000    -0.36907    
O178     O      0.569920000000     0.082070000000     0.640950000000    -0.380359   
O179     O      0.475690000000     0.817510000000     0.573230000000    -0.363489   
O180     O      0.456250000000     0.805350000000     0.484700000000    -0.368359   
O181     O      0.721050000000     0.129950000000     0.500280000000    -0.398867   
O182     O      0.671520000000     0.164040000000     0.550190000000    -0.370771   
O183     O      0.708290000000     0.984780000000     0.537770000000    -0.531227   
O184     O      0.757420000000     0.073920000000     0.443990000000    -0.320313   
O185     O      0.598080000000     0.897250000000     0.637180000000    -0.343883   
O186     O      0.432870000000     0.868470000000     0.654040000000    -0.528749   
O187     O      0.563310000000     0.928170000000     0.510250000000    -0.629187   
O188     O      0.604570000000     0.025060000000     0.562170000000    -0.502093   
O189     O      0.561130000000     0.000230000000     0.410950000000    -0.477775   
O190     O      0.465190000000     0.989590000000     0.575500000000    -0.634258   
O191     O      0.596860000000     0.091490000000     0.463670000000    -0.631629   
O192     O      0.432270000000     0.899960000000     0.521560000000    -0.492978   
O193     O      0.492800000000     0.333670000000     0.091610000000    -0.367459   
O194     O      0.501360000000     0.312830000000     0.009140000000    -0.335402   
O195     O      0.344140000000     0.503920000000     0.001280000000    -0.392543   
O196     O      0.418900000000     0.603220000000     0.996590000000    -0.355934   
O197     O      0.352250000000     0.338990000000     0.981670000000    -0.36975    
O198     O      0.422810000000     0.316650000000     0.944880000000    -0.361468   
O199     O      0.502580000000     0.499440000000     0.155410000000    -0.385299   
O200     O      0.498950000000     0.587030000000     0.126100000000    -0.379855   
O201     O      0.387210000000     0.365010000000     0.128570000000    -0.349107   
O202     O      0.552610000000     0.415270000000     0.172680000000    -0.524697   
O203     O      0.267240000000     0.384050000000     0.972960000000    -0.529106   
O204     O      0.343040000000     0.449240000000     0.874370000000    -0.37042    
O205     O      0.448720000000     0.401120000000     0.010080000000    -0.502029   
O206     O      0.436390000000     0.484890000000     0.050200000000    -0.611964   
O207     O      0.707110000000     0.660140000000     0.040740000000    -0.386078   
O208     O      0.624210000000     0.678620000000     0.060130000000    -0.362393   
O209     O      0.557140000000     0.509390000000     0.833150000000    -0.383923   
O210     O      0.545850000000     0.415280000000     0.861540000000    -0.380829   
O211     O      0.551330000000     0.668410000000     0.899310000000    -0.358165   
O212     O      0.551730000000     0.691080000000     0.983210000000    -0.342636   
O213     O      0.705220000000     0.506090000000     0.976800000000    -0.372504   
O214     O      0.636330000000     0.405260000000     0.977970000000    -0.368332   
O215     O      0.779790000000     0.622550000000     0.011380000000    -0.516738   
O216     O      0.703590000000     0.529300000000     0.110610000000    -0.369992   
O217     O      0.656290000000     0.641710000000     0.857210000000    -0.342976   
O218     O      0.486140000000     0.579770000000     0.819070000000    -0.526259   
O219     O      0.602580000000     0.603550000000     0.977790000000    -0.642341   
O220     O      0.611240000000     0.517850000000     0.940120000000    -0.475963   
O221     O      0.576510000000     0.540290000000     0.078660000000    -0.489009   
O222     O      0.471170000000     0.460970000000     0.910390000000    -0.62074    
O223     O      0.583640000000     0.448770000000     0.040610000000    -0.629014   
O224     O      0.464790000000     0.552260000000     0.949790000000    -0.497458   
O225     O      0.582480000000     0.360160000000     0.536200000000    -0.377532   
O226     O      0.564320000000     0.361300000000     0.446450000000    -0.370187   
O227     O      0.331420000000     0.423330000000     0.563890000000    -0.388534   
O228     O      0.384210000000     0.524710000000     0.571920000000    -0.355205   
O229     O      0.354560000000     0.319530000000     0.449520000000    -0.380928   
O230     O      0.442340000000     0.335210000000     0.403450000000    -0.356844   
O231     O      0.546800000000     0.451310000000     0.663350000000    -0.377303   
O232     O      0.513990000000     0.524850000000     0.655270000000    -0.393548   
O233     O      0.487090000000     0.329230000000     0.622600000000    -0.341801   
O234     O      0.657680000000     0.443320000000     0.620860000000    -0.52377    
O235     O      0.300950000000     0.313010000000     0.538440000000    -0.517573   
O236     O      0.294060000000     0.412700000000     0.437490000000    -0.353474   
O237     O      0.475510000000     0.388170000000     0.501720000000    -0.504122   
O238     O      0.459700000000     0.446710000000     0.570740000000    -0.627246   
O239     O      0.687100000000     0.672350000000     0.542580000000    -0.381628   
O240     O      0.597520000000     0.659850000000     0.584410000000    -0.357203   
O241     O      0.501290000000     0.552000000000     0.324500000000    -0.379431   
O242     O      0.529160000000     0.475320000000     0.332230000000    -0.38991    
O243     O      0.447140000000     0.629030000000     0.452580000000    -0.370465   
O244     O      0.472450000000     0.633950000000     0.541450000000    -0.36808    
O245     O      0.698660000000     0.575480000000     0.414960000000    -0.370566   
O246     O      0.650510000000     0.475210000000     0.402440000000    -0.366674   
O247     O      0.740840000000     0.683270000000     0.454380000000    -0.518395   
O248     O      0.744630000000     0.575520000000     0.543560000000    -0.360363   
O249     O      0.543640000000     0.668380000000     0.367420000000    -0.338326   
O250     O      0.378060000000     0.544190000000     0.364850000000    -0.52828    
O251     O      0.562950000000     0.607160000000     0.484930000000    -0.638473   
O252     O      0.577640000000     0.548510000000     0.417070000000    -0.486845   
O253     O      0.597770000000     0.537500000000     0.569930000000    -0.494076   
O254     O      0.439820000000     0.457510000000     0.416890000000    -0.631657   
O255     O      0.612750000000     0.479280000000     0.498230000000    -0.632148   
O256     O      0.426000000000     0.515290000000     0.489620000000    -0.490687   
Zr1      Zr     0.150700000000     0.032960000000     0.971550000000     1.38891    
Zr2      Zr     0.006790000000     0.061870000000     0.896170000000     1.37764    
Zr3      Zr     0.032810000000     0.928920000000     0.087100000000     1.37242    
Zr4      Zr     0.887890000000     0.960680000000     0.010780000000     1.39142    
Zr5      Zr     0.058380000000     0.088410000000     0.046060000000     1.38574    
Zr6      Zr     0.979270000000     0.900950000000     0.938970000000     1.37543    
Zr7      Zr     0.967110000000     0.869170000000     0.497040000000     1.3841     
Zr8      Zr     0.963190000000     0.994780000000     0.391550000000     1.39085    
Zr9      Zr     0.071360000000     0.993360000000     0.596530000000     1.38439    
Zr10     Zr     0.070970000000     0.120860000000     0.490510000000     1.38389    
Zr11     Zr     0.134370000000     0.012380000000     0.457200000000     1.33279    
Zr12     Zr     0.903490000000     0.977970000000     0.530130000000     1.34663    
Zr13     Zr     0.061870000000     0.423470000000     0.071230000000     1.38737    
Zr14     Zr     0.896810000000     0.411980000000     0.992440000000     1.3819     
Zr15     Zr     0.172080000000     0.578930000000     0.986690000000     1.39559    
Zr16     Zr     0.006010000000     0.569110000000     0.909280000000     1.38957    
Zr17     Zr     0.042590000000     0.434020000000     0.919980000000     1.36825    
Zr18     Zr     0.026770000000     0.559230000000     0.058640000000     1.37153    
Zr19     Zr     0.977560000000     0.422100000000     0.584270000000     1.40767    
Zr20     Zr     0.877930000000     0.447210000000     0.455730000000     1.37839    
Zr21     Zr     0.148260000000     0.540390000000     0.522820000000     1.38735    
Zr22     Zr     0.046330000000     0.564670000000     0.393250000000     1.38408    
Zr23     Zr     0.016850000000     0.401800000000     0.448830000000     1.36132    
Zr24     Zr     0.011660000000     0.586300000000     0.529270000000     1.3587     
Zr25     Zr     0.462940000000     0.004580000000     0.891870000000     1.38122    
Zr26     Zr     0.456640000000     0.872720000000     0.996150000000     1.36902    
Zr27     Zr     0.579730000000     0.128790000000     0.991590000000     1.38161    
Zr28     Zr     0.575650000000     0.996370000000     0.095280000000     1.3876     
Zr29     Zr     0.413360000000     0.993090000000     0.032560000000     1.36017    
Zr30     Zr     0.629360000000     0.012580000000     0.954750000000     1.33967    
Zr31     Zr     0.508730000000     0.063440000000     0.397040000000     1.37751    
Zr32     Zr     0.380270000000     0.961880000000     0.505270000000     1.40403    
Zr33     Zr     0.646730000000     0.026870000000     0.480590000000     1.38715    
Zr34     Zr     0.517330000000     0.925910000000     0.590150000000     1.38073    
Zr35     Zr     0.551690000000     0.087610000000     0.545030000000     1.37703    
Zr36     Zr     0.475740000000     0.901080000000     0.440940000000     1.37406    
Zr37     Zr     0.496760000000     0.434080000000     0.092390000000     1.40489    
Zr38     Zr     0.387130000000     0.446780000000     0.965690000000     1.38275    
Zr39     Zr     0.661340000000     0.554310000000     0.024490000000     1.38712    
Zr40     Zr     0.550470000000     0.568140000000     0.896910000000     1.3928     
Zr41     Zr     0.531380000000     0.410340000000     0.956230000000     1.36472    
Zr42     Zr     0.517940000000     0.591880000000     0.032680000000     1.37293    
Zr43     Zr     0.553180000000     0.428730000000     0.574690000000     1.38917    
Zr44     Zr     0.383890000000     0.407910000000     0.495720000000     1.39325    
Zr45     Zr     0.654360000000     0.586530000000     0.491410000000     1.38996    
Zr46     Zr     0.483830000000     0.566240000000     0.412850000000     1.39187    
Zr47     Zr     0.534130000000     0.439770000000     0.423930000000     1.3725     
Zr48     Zr     0.504090000000     0.556160000000     0.563000000000     1.36859    


