data_structure

_audit_creation_method RASPA-1.0
_audit_creation_date 2023-5-19
_audit_author_name 'Poobodin Mano'

_cell_length_a    35.383
_cell_length_b    27.7752
_cell_length_c    26.9786
_cell_angle_alpha 89.9989
_cell_angle_beta  89.9989
_cell_angle_gamma 89.9348
_cell_volume      26513.7

_symmetry_cell_setting          triclinic
_symmetry_space_group_name_Hall 'P 1'
_symmetry_space_group_name_H-M  'P 1'
_symmetry_Int_Tables_number     1

_symmetry_equiv_pos_as_xyz 'x,y,z'

loop_
_atom_site_label
_atom_site_type_symbol
_atom_site_fract_x
_atom_site_fract_y
_atom_site_fract_z
_atom_site_charge
C1       C      0.382910000000     0.460050000000     0.390430000000     0.401813   
C2       C      0.080990000000     0.462870000000     0.062650000000     0.408463   
C3       C      0.382440000000     0.458600000000     0.058540000000     0.408055   
C4       C      0.080570000000     0.461400000000     0.390860000000     0.390094   
C5       C      0.081030000000     0.129540000000     0.393150000000     0.408185   
C6       C      0.380870000000     0.126590000000     0.059890000000     0.418224   
C7       C      0.069000000000     0.126290000000     0.080630000000     0.393133   
C8       C      0.382390000000     0.128500000000     0.391600000000     0.407486   
C9       C      0.330450000000     0.377660000000     0.140590000000     0.407581   
C10      C      0.132330000000     0.376610000000     0.309050000000     0.391171   
C11      C      0.330040000000     0.377830000000     0.309300000000     0.402575   
C12      C      0.131920000000     0.373900000000     0.136790000000     0.408719   
C13      C      0.143950000000     0.210780000000     0.120260000000     0.389281   
C14      C      0.330300000000     0.209870000000     0.309850000000     0.407469   
C15      C      0.131680000000     0.208860000000     0.307960000000     0.408571   
C16      C      0.331870000000     0.209610000000     0.141580000000     0.416054   
H1       H      0.035060000000     0.447170000000     0.476230000000     0.195941   
H2       H      0.426950000000     0.042200000000     0.079640000000     0.197807   
H3       H      0.032490000000     0.148230000000     0.479740000000     0.203801   
H4       H      0.429510000000     0.045840000000     0.371720000000     0.199559   
H5       H      0.482130000000     0.007470000000     0.148560000000     0.129989   
H6       H      0.461590000000     0.108880000000     0.159940000000     0.19529    
H7       H      0.466360000000     0.213340000000     0.024770000000     0.141813   
H8       H      0.497430000000     0.221570000000     0.429120000000     0.199434   
H9       H      0.496700000000     0.088270000000     0.304730000000     0.138842   
H10      H      0.459270000000     0.479270000000     0.294480000000     0.203562   
H11      H      0.469440000000     0.377030000000     0.429350000000     0.136179   
H12      H      0.497360000000     0.368960000000     0.022110000000     0.193453   
H13      H      0.467550000000     0.222620000000     0.381040000000     0.210455   
H14      H      0.006050000000     0.487940000000     0.295510000000     0.208149   
H15      H      0.469990000000     0.367040000000     0.072680000000     0.208667   
H16      H      0.470260000000     0.167020000000     0.148220000000     0.209612   
H17      H      0.177760000000     0.390420000000     0.222600000000     0.195602   
H18      H      0.283310000000     0.293050000000     0.328500000000     0.195551   
H19      H      0.180200000000     0.189290000000     0.222230000000     0.202268   
H20      H      0.285890000000     0.293660000000     0.120660000000     0.197049   
H21      H      0.251110000000     0.340830000000     0.396700000000     0.129652   
H22      H      0.218660000000     0.249930000000     0.403840000000     0.20031    
H23      H      0.249090000000     0.123720000000     0.272380000000     0.138547   
H24      H      0.242450000000     0.115710000000     0.174130000000     0.200302   
H25      H      0.249440000000     0.231730000000     0.047560000000     0.129108   
H26      H      0.231600000000     0.331200000000     0.043410000000     0.192529   
H27      H      0.246420000000     0.461190000000     0.178020000000     0.138767   
H28      H      0.214880000000     0.467110000000     0.268960000000     0.194093   
H29      H      0.198060000000     0.123060000000     0.154070000000     0.201265   
H30      H      0.232670000000     0.391430000000     0.041650000000     0.209981   
H31      H      0.242070000000     0.469290000000     0.319670000000     0.209303   
H32      H      0.242790000000     0.198090000000     0.405760000000     0.209063   
H33      H      0.078960000000     0.167580000000     0.143280000000     0.111828   
H34      H      0.134170000000     0.169230000000     0.057740000000     0.112753   
H35      H      0.137390000000     0.143860000000     0.379880000000     0.116881   
H36      H      0.075320000000     0.194620000000     0.321300000000     0.115991   
H37      H      0.137370000000     0.449440000000     0.076800000000     0.116257   
H38      H      0.075540000000     0.387250000000     0.122530000000     0.116154   
H39      H      0.324760000000     0.141140000000     0.073610000000     0.119502   
H40      H      0.387970000000     0.194730000000     0.128200000000     0.112096   
H41      H      0.326190000000     0.446890000000     0.377630000000     0.110793   
H42      H      0.386770000000     0.390950000000     0.322100000000     0.113523   
H43      H      0.386880000000     0.197860000000     0.324060000000     0.112861   
H44      H      0.325800000000     0.140690000000     0.377620000000     0.112233   
H45      H      0.075760000000     0.391420000000     0.322170000000     0.115494   
H46      H      0.137150000000     0.446550000000     0.377810000000     0.115117   
H47      H      0.325860000000     0.444890000000     0.070820000000     0.114001   
H48      H      0.387040000000     0.391070000000     0.128020000000     0.112365   
N1       N      0.090020000000     0.157100000000     0.108950000000    -0.176716   
N2       N      0.123050000000     0.179770000000     0.092010000000    -0.177222   
N3       N      0.109660000000     0.152240000000     0.369440000000    -0.178382   
N4       N      0.103040000000     0.186260000000     0.331760000000    -0.178193   
N5       N      0.109690000000     0.438390000000     0.084310000000    -0.178325   
N6       N      0.103220000000     0.398280000000     0.114990000000    -0.178257   
N7       N      0.352580000000     0.150070000000     0.083000000000    -0.182383   
N8       N      0.360150000000     0.185870000000     0.118730000000    -0.181044   
N9       N      0.353740000000     0.436990000000     0.367780000000    -0.177894   
N10      N      0.359230000000     0.400840000000     0.331980000000    -0.178463   
N11      N      0.359320000000     0.187430000000     0.333100000000    -0.179349   
N12      N      0.353360000000     0.151110000000     0.368560000000    -0.179109   
N13      N      0.103400000000     0.400640000000     0.332050000000    -0.173729   
N14      N      0.109510000000     0.437350000000     0.367900000000    -0.173694   
N15      N      0.353440000000     0.435560000000     0.081090000000    -0.179254   
N16      N      0.359460000000     0.400450000000     0.117810000000    -0.179161   
O1       O      0.417440000000     0.448810000000     0.379220000000    -0.370508   
O2       O      0.373900000000     0.492320000000     0.422160000000    -0.375013   
O3       O      0.046600000000     0.449860000000     0.071830000000    -0.368062   
O4       O      0.090220000000     0.497220000000     0.033360000000    -0.38083    
O5       O      0.416700000000     0.447500000000     0.070640000000    -0.373156   
O6       O      0.373610000000     0.490720000000     0.026510000000    -0.374691   
O7       O      0.046410000000     0.450320000000     0.378810000000    -0.365363   
O8       O      0.089130000000     0.493690000000     0.423800000000    -0.355481   
O9       O      0.484010000000     0.387080000000     0.399780000000    -0.34037    
O10      O      0.482630000000     0.481800000000     0.312840000000    -0.532117   
O11      O      0.483150000000     0.385380000000     0.047610000000    -0.526036   
O12      O      0.480800000000     0.472910000000     0.139690000000    -0.341499   
O13      O      0.445540000000     0.471110000000     0.475090000000    -0.500438   
O14      O      0.018420000000     0.474740000000     0.476470000000    -0.625467   
O15      O      0.046610000000     0.139520000000     0.380700000000    -0.370555   
O16      O      0.090330000000     0.099330000000     0.426940000000    -0.379911   
O17      O      0.414800000000     0.137720000000     0.071720000000    -0.387743   
O18      O      0.372040000000     0.094650000000     0.027630000000    -0.375568   
O19      O      0.036100000000     0.116850000000     0.097030000000    -0.371014   
O20      O      0.081590000000     0.108870000000     0.038950000000    -0.351469   
O21      O      0.416670000000     0.140880000000     0.380940000000    -0.369987   
O22      O      0.373600000000     0.095620000000     0.422780000000    -0.374593   
O23      O      0.482190000000     0.204690000000     0.405020000000    -0.526654   
O24      O      0.481520000000     0.116960000000     0.313620000000    -0.345621   
O25      O      0.490010000000     0.200900000000     0.039680000000    -0.361419   
O26      O      0.468030000000     0.134160000000     0.136820000000    -0.51262    
O27      O      0.016760000000     0.119840000000     0.478740000000    -0.631387   
O28      O      0.443490000000     0.117510000000     0.476350000000    -0.501996   
O29      O      0.018730000000     0.046910000000     0.404260000000    -0.492255   
O30      O      0.443670000000     0.042770000000     0.051350000000    -0.641724   
O31      O      0.445670000000     0.045800000000     0.400590000000    -0.636458   
O32      O      0.016440000000     0.044640000000     0.053050000000    -0.488678   
O33      O      0.296200000000     0.388800000000     0.128490000000    -0.373868   
O34      O      0.339260000000     0.345770000000     0.172880000000    -0.375766   
O35      O      0.166500000000     0.387710000000     0.321040000000    -0.361995   
O36      O      0.123740000000     0.344310000000     0.276130000000    -0.354799   
O37      O      0.295510000000     0.389080000000     0.320590000000    -0.373013   
O38      O      0.339010000000     0.345630000000     0.277490000000    -0.374954   
O39      O      0.166310000000     0.386810000000     0.127480000000    -0.367353   
O40      O      0.122670000000     0.339760000000     0.166340000000    -0.380538   
O41      O      0.230030000000     0.451880000000     0.149870000000    -0.347068   
O42      O      0.232000000000     0.361810000000     0.060410000000    -0.52512    
O43      O      0.228970000000     0.450820000000     0.294670000000    -0.525808   
O44      O      0.229600000000     0.361800000000     0.387400000000    -0.343426   
O45      O      0.267430000000     0.366360000000     0.223980000000    -0.500418   
O46      O      0.194410000000     0.362860000000     0.222700000000    -0.626795   
O47      O      0.176830000000     0.220400000000     0.103920000000    -0.37402    
O48      O      0.131290000000     0.228240000000     0.161870000000    -0.352296   
O49      O      0.296020000000     0.197540000000     0.320510000000    -0.375896   
O50      O      0.339130000000     0.242520000000     0.278430000000    -0.375496   
O51      O      0.166090000000     0.198930000000     0.320510000000    -0.365773   
O52      O      0.122410000000     0.238860000000     0.273980000000    -0.379523   
O53      O      0.297930000000     0.198530000000     0.129700000000    -0.383865   
O54      O      0.340710000000     0.241770000000     0.173600000000    -0.377012   
O55      O      0.222500000000     0.136430000000     0.162110000000    -0.532931   
O56      O      0.244850000000     0.200460000000     0.064120000000    -0.323674   
O57      O      0.230570000000     0.133070000000     0.298170000000    -0.344559   
O58      O      0.230860000000     0.223490000000     0.386900000000    -0.529683   
O59      O      0.195970000000     0.217650000000     0.222780000000    -0.632356   
O60      O      0.269240000000     0.219930000000     0.225120000000    -0.504328   
O61      O      0.196400000000     0.291740000000     0.147300000000    -0.488198   
O62      O      0.267110000000     0.292830000000     0.299700000000    -0.637086   
O63      O      0.269160000000     0.293500000000     0.148960000000    -0.640697   
O64      O      0.194160000000     0.291820000000     0.296030000000    -0.489787   
Zr1      Zr     0.482350000000     0.474670000000     0.401900000000     1.37267    
Zr2      Zr     0.481420000000     0.472100000000     0.049470000000     1.37644    
Zr3      Zr     0.481540000000     0.117930000000     0.403850000000     1.37727    
Zr4      Zr     0.478540000000     0.115130000000     0.050760000000     1.38527    
Zr5      Zr     0.409920000000     0.043710000000     0.475280000000     1.39665    
Zr6      Zr     0.053900000000     0.048160000000     0.479940000000     1.36736    
Zr7      Zr     0.231480000000     0.364260000000     0.149680000000     1.37597    
Zr8      Zr     0.230560000000     0.364100000000     0.297160000000     1.37172    
Zr9      Zr     0.234200000000     0.221210000000     0.150670000000     1.38364    
Zr10     Zr     0.231190000000     0.220710000000     0.297630000000     1.37635    
Zr11     Zr     0.302900000000     0.293660000000     0.225040000000     1.39642    
Zr12     Zr     0.158930000000     0.289410000000     0.220430000000     1.36727    
C17      C      0.382910000000     0.460060000000     0.890430000000     0.401852   
C18      C      0.080990000000     0.462870000000     0.562650000000     0.408364   
C19      C      0.382440000000     0.458600000000     0.558540000000     0.4081     
C20      C      0.080570000000     0.461400000000     0.890850000000     0.39004    
C21      C      0.081030000000     0.129540000000     0.893150000000     0.408165   
C22      C      0.380870000000     0.126590000000     0.559880000000     0.418181   
C23      C      0.069000000000     0.126290000000     0.580630000000     0.393172   
C24      C      0.382390000000     0.128500000000     0.891600000000     0.407399   
C25      C      0.330450000000     0.377660000000     0.640590000000     0.40761    
C26      C      0.132330000000     0.376610000000     0.809050000000     0.391209   
C27      C      0.330040000000     0.377840000000     0.809300000000     0.402556   
C28      C      0.131920000000     0.373900000000     0.636790000000     0.408725   
C29      C      0.143950000000     0.210780000000     0.620270000000     0.389171   
C30      C      0.330300000000     0.209870000000     0.809850000000     0.407462   
C31      C      0.131680000000     0.208860000000     0.807960000000     0.408453   
C32      C      0.331870000000     0.209610000000     0.641580000000     0.416041   
H49      H      0.035060000000     0.447180000000     0.976230000000     0.195987   
H50      H      0.426950000000     0.042200000000     0.579640000000     0.197847   
H51      H      0.032490000000     0.148230000000     0.979740000000     0.203826   
H52      H      0.429510000000     0.045840000000     0.871720000000     0.199697   
H53      H      0.482130000000     0.007470000000     0.648560000000     0.130001   
H54      H      0.461590000000     0.108880000000     0.659940000000     0.195322   
H55      H      0.466360000000     0.213340000000     0.524770000000     0.141719   
H56      H      0.497430000000     0.221570000000     0.929120000000     0.199355   
H57      H      0.496700000000     0.088270000000     0.804730000000     0.138763   
H58      H      0.459270000000     0.479270000000     0.794480000000     0.203709   
H59      H      0.469440000000     0.377030000000     0.929350000000     0.136107   
H60      H      0.497360000000     0.368960000000     0.522110000000     0.193336   
H61      H      0.467550000000     0.222620000000     0.881040000000     0.210429   
H62      H      0.006040000000     0.487940000000     0.795510000000     0.208423   
H63      H      0.469990000000     0.367040000000     0.572680000000     0.208639   
H64      H      0.470260000000     0.167020000000     0.648220000000     0.209585   
H65      H      0.177760000000     0.390420000000     0.722600000000     0.195616   
H66      H      0.283310000000     0.293050000000     0.828510000000     0.195402   
H67      H      0.180200000000     0.189290000000     0.722230000000     0.202404   
H68      H      0.285890000000     0.293660000000     0.620660000000     0.197029   
H69      H      0.251110000000     0.340830000000     0.896700000000     0.129611   
H70      H      0.218660000000     0.249930000000     0.903840000000     0.200338   
H71      H      0.249090000000     0.123720000000     0.772380000000     0.138547   
H72      H      0.242450000000     0.115710000000     0.674140000000     0.200238   
H73      H      0.249440000000     0.231730000000     0.547560000000     0.129067   
H74      H      0.231600000000     0.331200000000     0.543410000000     0.192453   
H75      H      0.246420000000     0.461190000000     0.678020000000     0.138769   
H76      H      0.214880000000     0.467110000000     0.768960000000     0.194101   
H77      H      0.198060000000     0.123060000000     0.654070000000     0.201236   
H78      H      0.232670000000     0.391430000000     0.541650000000     0.2099     
H79      H      0.242070000000     0.469290000000     0.819670000000     0.209301   
H80      H      0.242790000000     0.198090000000     0.905760000000     0.209091   
H81      H      0.078960000000     0.167570000000     0.643280000000     0.111838   
H82      H      0.134170000000     0.169230000000     0.557730000000     0.112648   
H83      H      0.137380000000     0.143860000000     0.879890000000     0.116882   
H84      H      0.075320000000     0.194620000000     0.821300000000     0.115981   
H85      H      0.137370000000     0.449440000000     0.576810000000     0.116226   
H86      H      0.075540000000     0.387250000000     0.622520000000     0.116156   
H87      H      0.324760000000     0.141140000000     0.573610000000     0.119461   
H88      H      0.387970000000     0.194730000000     0.628200000000     0.112101   
H89      H      0.326190000000     0.446890000000     0.877630000000     0.110751   
H90      H      0.386770000000     0.390960000000     0.822110000000     0.113547   
H91      H      0.386880000000     0.197860000000     0.824060000000     0.112854   
H92      H      0.325800000000     0.140690000000     0.877630000000     0.112159   
H93      H      0.075760000000     0.391430000000     0.822170000000     0.115498   
H94      H      0.137150000000     0.446550000000     0.877810000000     0.115082   
H95      H      0.325860000000     0.444890000000     0.570810000000     0.113968   
H96      H      0.387040000000     0.391070000000     0.628030000000     0.112392   
N17      N      0.090020000000     0.157100000000     0.608950000000    -0.176754   
N18      N      0.123050000000     0.179770000000     0.592010000000    -0.177141   
N19      N      0.109660000000     0.152240000000     0.869440000000    -0.178429   
N20      N      0.103040000000     0.186260000000     0.831760000000    -0.178174   
N21      N      0.109690000000     0.438390000000     0.584310000000    -0.178333   
N22      N      0.103220000000     0.398280000000     0.614990000000    -0.178282   
N23      N      0.352580000000     0.150070000000     0.583000000000    -0.182358   
N24      N      0.360150000000     0.185870000000     0.618730000000    -0.181051   
N25      N      0.353740000000     0.436990000000     0.867780000000    -0.177889   
N26      N      0.359230000000     0.400840000000     0.831980000000    -0.178519   
N27      N      0.359320000000     0.187430000000     0.833100000000    -0.179348   
N28      N      0.353360000000     0.151110000000     0.868550000000    -0.179051   
N29      N      0.103400000000     0.400640000000     0.832050000000    -0.173759   
N30      N      0.109510000000     0.437350000000     0.867900000000    -0.173719   
N31      N      0.353440000000     0.435560000000     0.581080000000    -0.179309   
N32      N      0.359470000000     0.400450000000     0.617810000000    -0.179176   
O65      O      0.417440000000     0.448810000000     0.879230000000    -0.370539   
O66      O      0.373900000000     0.492320000000     0.922160000000    -0.375109   
O67      O      0.046600000000     0.449860000000     0.571830000000    -0.368081   
O68      O      0.090220000000     0.497230000000     0.533360000000    -0.38102    
O69      O      0.416700000000     0.447500000000     0.570640000000    -0.373191   
O70      O      0.373610000000     0.490720000000     0.526510000000    -0.374914   
O71      O      0.046410000000     0.450320000000     0.878810000000    -0.365382   
O72      O      0.089130000000     0.493690000000     0.923800000000    -0.35543    
O73      O      0.484010000000     0.387080000000     0.899780000000    -0.340392   
O74      O      0.482630000000     0.481800000000     0.812830000000    -0.532458   
O75      O      0.483150000000     0.385380000000     0.547610000000    -0.526041   
O76      O      0.480790000000     0.472910000000     0.639690000000    -0.341466   
O77      O      0.445540000000     0.471110000000     0.975080000000    -0.500593   
O78      O      0.018420000000     0.474740000000     0.976470000000    -0.625661   
O79      O      0.046610000000     0.139520000000     0.880700000000    -0.370541   
O80      O      0.090330000000     0.099330000000     0.926940000000    -0.37994    
O81      O      0.414800000000     0.137720000000     0.571730000000    -0.387696   
O82      O      0.372040000000     0.094650000000     0.527630000000    -0.375826   
O83      O      0.036100000000     0.116850000000     0.597030000000    -0.370995   
O84      O      0.081590000000     0.108880000000     0.538950000000    -0.351684   
O85      O      0.416670000000     0.140880000000     0.880940000000    -0.369974   
O86      O      0.373600000000     0.095620000000     0.922780000000    -0.374612   
O87      O      0.482190000000     0.204690000000     0.905020000000    -0.526657   
O88      O      0.481510000000     0.116960000000     0.813630000000    -0.345569   
O89      O      0.490010000000     0.200900000000     0.539680000000    -0.361492   
O90      O      0.468020000000     0.134160000000     0.636820000000    -0.512529   
O91      O      0.016770000000     0.119840000000     0.978740000000    -0.63154    
O92      O      0.443490000000     0.117510000000     0.976360000000    -0.502122   
O93      O      0.018730000000     0.046910000000     0.904250000000    -0.492174   
O94      O      0.443670000000     0.042770000000     0.551350000000    -0.641844   
O95      O      0.445670000000     0.045800000000     0.900580000000    -0.636493   
O96      O      0.016440000000     0.044640000000     0.553050000000    -0.488783   
O97      O      0.296200000000     0.388800000000     0.628490000000    -0.373895   
O98      O      0.339260000000     0.345780000000     0.672880000000    -0.375796   
O99      O      0.166500000000     0.387710000000     0.821030000000    -0.362056   
O100     O      0.123740000000     0.344310000000     0.776130000000    -0.354794   
O101     O      0.295510000000     0.389080000000     0.820590000000    -0.37303    
O102     O      0.339010000000     0.345630000000     0.777490000000    -0.374889   
O103     O      0.166310000000     0.386810000000     0.627480000000    -0.367373   
O104     O      0.122670000000     0.339760000000     0.666340000000    -0.380579   
O105     O      0.230030000000     0.451880000000     0.649870000000    -0.347086   
O106     O      0.232000000000     0.361810000000     0.560410000000    -0.525115   
O107     O      0.228970000000     0.450820000000     0.794670000000    -0.525873   
O108     O      0.229600000000     0.361800000000     0.887400000000    -0.343433   
O109     O      0.267430000000     0.366370000000     0.723980000000    -0.500408   
O110     O      0.194410000000     0.362860000000     0.722690000000    -0.626847   
O111     O      0.176830000000     0.220400000000     0.603920000000    -0.374      
O112     O      0.131290000000     0.228240000000     0.661880000000    -0.352315   
O113     O      0.296020000000     0.197540000000     0.820510000000    -0.375887   
O114     O      0.339130000000     0.242520000000     0.778430000000    -0.375481   
O115     O      0.166090000000     0.198930000000     0.820510000000    -0.365754   
O116     O      0.122410000000     0.238860000000     0.773970000000    -0.379445   
O117     O      0.297930000000     0.198530000000     0.629700000000    -0.383867   
O118     O      0.340710000000     0.241770000000     0.673600000000    -0.377014   
O119     O      0.222500000000     0.136430000000     0.662110000000    -0.532868   
O120     O      0.244860000000     0.200460000000     0.564120000000    -0.323735   
O121     O      0.230570000000     0.133070000000     0.798170000000    -0.344573   
O122     O      0.230860000000     0.223490000000     0.886910000000    -0.529798   
O123     O      0.195960000000     0.217650000000     0.722770000000    -0.632434   
O124     O      0.269240000000     0.219930000000     0.725130000000    -0.50432    
O125     O      0.196400000000     0.291740000000     0.647300000000    -0.488242   
O126     O      0.267110000000     0.292830000000     0.799700000000    -0.636889   
O127     O      0.269160000000     0.293500000000     0.648960000000    -0.640697   
O128     O      0.194160000000     0.291820000000     0.796030000000    -0.489722   
Zr13     Zr     0.482350000000     0.474670000000     0.901900000000     1.3727     
Zr14     Zr     0.481420000000     0.472100000000     0.549470000000     1.37607    
Zr15     Zr     0.481540000000     0.117930000000     0.903850000000     1.37722    
Zr16     Zr     0.478540000000     0.115130000000     0.550750000000     1.38478    
Zr17     Zr     0.409920000000     0.043710000000     0.975280000000     1.39603    
Zr18     Zr     0.053900000000     0.048160000000     0.979940000000     1.3668     
Zr19     Zr     0.231480000000     0.364260000000     0.649680000000     1.37599    
Zr20     Zr     0.230560000000     0.364110000000     0.797150000000     1.37166    
Zr21     Zr     0.234200000000     0.221210000000     0.650670000000     1.38356    
Zr22     Zr     0.231190000000     0.220710000000     0.797630000000     1.37622    
Zr23     Zr     0.302900000000     0.293660000000     0.725040000000     1.39632    
Zr24     Zr     0.158930000000     0.289410000000     0.720420000000     1.36736    
C33      C      0.382910000000     0.960050000000     0.390430000000     0.401773   
C34      C      0.080990000000     0.962860000000     0.062650000000     0.408439   
C35      C      0.382440000000     0.958600000000     0.058540000000     0.40813    
C36      C      0.080570000000     0.961400000000     0.390860000000     0.390095   
C37      C      0.081030000000     0.629530000000     0.393150000000     0.408232   
C38      C      0.380870000000     0.626580000000     0.059890000000     0.418165   
C39      C      0.069000000000     0.626290000000     0.080630000000     0.393248   
C40      C      0.382390000000     0.628500000000     0.391600000000     0.407576   
C41      C      0.330450000000     0.877660000000     0.140590000000     0.407624   
C42      C      0.132330000000     0.876610000000     0.309050000000     0.391296   
C43      C      0.330040000000     0.877840000000     0.309300000000     0.402465   
C44      C      0.131920000000     0.873900000000     0.136790000000     0.408617   
C45      C      0.143950000000     0.710780000000     0.120260000000     0.389291   
C46      C      0.330300000000     0.709870000000     0.309850000000     0.407463   
C47      C      0.131680000000     0.708860000000     0.307960000000     0.408577   
C48      C      0.331870000000     0.709610000000     0.141580000000     0.415943   
H97      H      0.035060000000     0.947180000000     0.476230000000     0.19604    
H98      H      0.426950000000     0.542210000000     0.079640000000     0.197874   
H99      H      0.032490000000     0.648230000000     0.479740000000     0.203791   
H100     H      0.429510000000     0.545840000000     0.371720000000     0.199653   
H101     H      0.482130000000     0.507470000000     0.148560000000     0.130312   
H102     H      0.461590000000     0.608890000000     0.159940000000     0.195444   
H103     H      0.466360000000     0.713350000000     0.024770000000     0.141913   
H104     H      0.497420000000     0.721570000000     0.429120000000     0.199641   
H105     H      0.496700000000     0.588270000000     0.304730000000     0.138834   
H106     H      0.459270000000     0.979280000000     0.294480000000     0.203685   
H107     H      0.469440000000     0.877030000000     0.429350000000     0.136171   
H108     H      0.497360000000     0.868960000000     0.022110000000     0.19345    
H109     H      0.467550000000     0.722620000000     0.381040000000     0.210582   
H110     H      0.006040000000     0.987940000000     0.295510000000     0.208436   
H111     H      0.469990000000     0.867040000000     0.072680000000     0.208662   
H112     H      0.470260000000     0.667020000000     0.148220000000     0.209653   
H113     H      0.177760000000     0.890420000000     0.222600000000     0.195615   
H114     H      0.283310000000     0.793050000000     0.328500000000     0.195551   
H115     H      0.180200000000     0.689300000000     0.222230000000     0.202269   
H116     H      0.285890000000     0.793660000000     0.120660000000     0.197045   
H117     H      0.251110000000     0.840830000000     0.396700000000     0.129661   
H118     H      0.218660000000     0.749940000000     0.403840000000     0.200192   
H119     H      0.249090000000     0.623720000000     0.272380000000     0.138579   
H120     H      0.242450000000     0.615710000000     0.174130000000     0.200375   
H121     H      0.249440000000     0.731730000000     0.047560000000     0.129125   
H122     H      0.231600000000     0.831190000000     0.043410000000     0.192394   
H123     H      0.246420000000     0.961190000000     0.178020000000     0.13881    
H124     H      0.214880000000     0.967110000000     0.268960000000     0.194172   
H125     H      0.198060000000     0.623060000000     0.154070000000     0.201335   
H126     H      0.232670000000     0.891430000000     0.041650000000     0.209969   
H127     H      0.242070000000     0.969290000000     0.319670000000     0.209382   
H128     H      0.242790000000     0.698090000000     0.405760000000     0.209046   
H129     H      0.078960000000     0.667580000000     0.143280000000     0.111838   
H130     H      0.134170000000     0.669230000000     0.057740000000     0.112773   
H131     H      0.137390000000     0.643870000000     0.379880000000     0.116923   
H132     H      0.075320000000     0.694620000000     0.321300000000     0.115995   
H133     H      0.137370000000     0.949440000000     0.076800000000     0.116293   
H134     H      0.075540000000     0.887250000000     0.122530000000     0.116152   
H135     H      0.324760000000     0.641140000000     0.073610000000     0.119518   
H136     H      0.387970000000     0.694730000000     0.128200000000     0.1121     
H137     H      0.326190000000     0.946890000000     0.377630000000     0.110818   
H138     H      0.386770000000     0.890950000000     0.322100000000     0.113506   
H139     H      0.386880000000     0.697870000000     0.324060000000     0.112842   
H140     H      0.325800000000     0.640700000000     0.377620000000     0.112284   
H141     H      0.075750000000     0.891430000000     0.322170000000     0.115482   
H142     H      0.137150000000     0.946550000000     0.377810000000     0.115152   
H143     H      0.325860000000     0.944880000000     0.070820000000     0.114054   
H144     H      0.387040000000     0.891070000000     0.128020000000     0.112414   
N33      N      0.090020000000     0.657090000000     0.108950000000    -0.176754   
N34      N      0.123050000000     0.679780000000     0.092010000000    -0.177246   
N35      N      0.109660000000     0.652240000000     0.369440000000    -0.178367   
N36      N      0.103040000000     0.686260000000     0.331760000000    -0.178189   
N37      N      0.109690000000     0.938390000000     0.084310000000    -0.17834    
N38      N      0.103220000000     0.898280000000     0.114990000000    -0.178237   
N39      N      0.352580000000     0.650070000000     0.083000000000    -0.182338   
N40      N      0.360150000000     0.685870000000     0.118730000000    -0.181019   
N41      N      0.353740000000     0.936990000000     0.367780000000    -0.177865   
N42      N      0.359230000000     0.900850000000     0.331980000000    -0.17842    
N43      N      0.359320000000     0.687430000000     0.333100000000    -0.179327   
N44      N      0.353360000000     0.651110000000     0.368560000000    -0.179134   
N45      N      0.103400000000     0.900630000000     0.332050000000    -0.173749   
N46      N      0.109510000000     0.937350000000     0.367900000000    -0.173693   
N47      N      0.353440000000     0.935560000000     0.081090000000    -0.179275   
N48      N      0.359470000000     0.900450000000     0.117810000000    -0.179167   
O129     O      0.417440000000     0.948800000000     0.379220000000    -0.37044    
O130     O      0.373900000000     0.992320000000     0.422160000000    -0.37485    
O131     O      0.046600000000     0.949860000000     0.071830000000    -0.368042   
O132     O      0.090220000000     0.997220000000     0.033360000000    -0.380566   
O133     O      0.416700000000     0.947510000000     0.070640000000    -0.373176   
O134     O      0.373610000000     0.990720000000     0.026510000000    -0.374552   
O135     O      0.046410000000     0.950320000000     0.378810000000    -0.36535    
O136     O      0.089130000000     0.993690000000     0.423800000000    -0.355272   
O137     O      0.484010000000     0.887080000000     0.399780000000    -0.340407   
O138     O      0.482630000000     0.981810000000     0.312840000000    -0.532353   
O139     O      0.483150000000     0.885380000000     0.047610000000    -0.526075   
O140     O      0.480800000000     0.972910000000     0.139690000000    -0.341195   
O141     O      0.445540000000     0.971110000000     0.475090000000    -0.500386   
O142     O      0.018420000000     0.974740000000     0.476470000000    -0.625433   
O143     O      0.046610000000     0.639520000000     0.380700000000    -0.370545   
O144     O      0.090330000000     0.599330000000     0.426940000000    -0.379904   
O145     O      0.414800000000     0.637720000000     0.071720000000    -0.387709   
O146     O      0.372040000000     0.594640000000     0.027630000000    -0.375587   
O147     O      0.036100000000     0.616850000000     0.097030000000    -0.371043   
O148     O      0.081590000000     0.608880000000     0.038950000000    -0.351489   
O149     O      0.416670000000     0.640870000000     0.380940000000    -0.370034   
O150     O      0.373600000000     0.595620000000     0.422780000000    -0.37461    
O151     O      0.482190000000     0.704700000000     0.405020000000    -0.526929   
O152     O      0.481510000000     0.616960000000     0.313620000000    -0.345533   
O153     O      0.490000000000     0.700900000000     0.039680000000    -0.361521   
O154     O      0.468030000000     0.634160000000     0.136820000000    -0.512759   
O155     O      0.016760000000     0.619840000000     0.478740000000    -0.63138    
O156     O      0.443490000000     0.617520000000     0.476350000000    -0.502034   
O157     O      0.018730000000     0.546910000000     0.404260000000    -0.492119   
O158     O      0.443670000000     0.542770000000     0.051350000000    -0.641634   
O159     O      0.445670000000     0.545800000000     0.400590000000    -0.636361   
O160     O      0.016440000000     0.544630000000     0.053050000000    -0.488545   
O161     O      0.296200000000     0.888800000000     0.128490000000    -0.373874   
O162     O      0.339260000000     0.845780000000     0.172880000000    -0.375794   
O163     O      0.166500000000     0.887710000000     0.321040000000    -0.362022   
O164     O      0.123750000000     0.844310000000     0.276130000000    -0.354874   
O165     O      0.295510000000     0.889070000000     0.320590000000    -0.373028   
O166     O      0.339010000000     0.845620000000     0.277490000000    -0.374845   
O167     O      0.166320000000     0.886800000000     0.127480000000    -0.367326   
O168     O      0.122670000000     0.839760000000     0.166340000000    -0.38051    
O169     O      0.230030000000     0.951880000000     0.149870000000    -0.347015   
O170     O      0.232010000000     0.861810000000     0.060410000000    -0.52496    
O171     O      0.228970000000     0.950820000000     0.294670000000    -0.52589    
O172     O      0.229600000000     0.861800000000     0.387400000000    -0.343415   
O173     O      0.267430000000     0.866370000000     0.223980000000    -0.500372   
O174     O      0.194410000000     0.862860000000     0.222700000000    -0.626797   
O175     O      0.176830000000     0.720400000000     0.103920000000    -0.37403    
O176     O      0.131290000000     0.728250000000     0.161870000000    -0.352307   
O177     O      0.296020000000     0.697540000000     0.320510000000    -0.375889   
O178     O      0.339130000000     0.742520000000     0.278430000000    -0.375487   
O179     O      0.166090000000     0.698930000000     0.320510000000    -0.365766   
O180     O      0.122410000000     0.738860000000     0.273980000000    -0.379528   
O181     O      0.297930000000     0.698540000000     0.129700000000    -0.383883   
O182     O      0.340720000000     0.741780000000     0.173600000000    -0.376897   
O183     O      0.222500000000     0.636430000000     0.162110000000    -0.533033   
O184     O      0.244850000000     0.700460000000     0.064120000000    -0.32368    
O185     O      0.230570000000     0.633070000000     0.298170000000    -0.344511   
O186     O      0.230860000000     0.723490000000     0.386900000000    -0.529538   
O187     O      0.195970000000     0.717660000000     0.222780000000    -0.632419   
O188     O      0.269240000000     0.719930000000     0.225120000000    -0.504331   
O189     O      0.196410000000     0.791740000000     0.147300000000    -0.488198   
O190     O      0.267110000000     0.792830000000     0.299700000000    -0.637034   
O191     O      0.269160000000     0.793490000000     0.148960000000    -0.640646   
O192     O      0.194160000000     0.791820000000     0.296030000000    -0.489738   
Zr25     Zr     0.482350000000     0.974670000000     0.401900000000     1.37306    
Zr26     Zr     0.481420000000     0.972100000000     0.049470000000     1.37675    
Zr27     Zr     0.481540000000     0.617930000000     0.403850000000     1.37725    
Zr28     Zr     0.478540000000     0.615130000000     0.050760000000     1.38526    
Zr29     Zr     0.409920000000     0.543720000000     0.475280000000     1.39715    
Zr30     Zr     0.053900000000     0.548150000000     0.479940000000     1.3679     
Zr31     Zr     0.231480000000     0.864260000000     0.149680000000     1.37599    
Zr32     Zr     0.230560000000     0.864110000000     0.297160000000     1.37175    
Zr33     Zr     0.234200000000     0.721200000000     0.150670000000     1.3838     
Zr34     Zr     0.231190000000     0.720710000000     0.297630000000     1.37636    
Zr35     Zr     0.302900000000     0.793660000000     0.225040000000     1.39634    
Zr36     Zr     0.158930000000     0.789410000000     0.220430000000     1.36737    
C49      C      0.382910000000     0.960060000000     0.890430000000     0.401869   
C50      C      0.080990000000     0.962860000000     0.562650000000     0.408431   
C51      C      0.382430000000     0.958600000000     0.558540000000     0.408115   
C52      C      0.080570000000     0.961400000000     0.890850000000     0.390053   
C53      C      0.081030000000     0.629540000000     0.893150000000     0.408196   
C54      C      0.380870000000     0.626580000000     0.559880000000     0.418179   
C55      C      0.069000000000     0.626290000000     0.580630000000     0.393113   
C56      C      0.382390000000     0.628500000000     0.891600000000     0.407354   
C57      C      0.330450000000     0.877660000000     0.640590000000     0.407668   
C58      C      0.132330000000     0.876620000000     0.809050000000     0.391165   
C59      C      0.330040000000     0.877840000000     0.809300000000     0.402394   
C60      C      0.131920000000     0.873900000000     0.636790000000     0.408949   
C61      C      0.143950000000     0.710780000000     0.620270000000     0.389177   
C62      C      0.330290000000     0.709870000000     0.809850000000     0.407492   
C63      C      0.131680000000     0.708850000000     0.807960000000     0.408449   
C64      C      0.331870000000     0.709610000000     0.641580000000     0.416108   
H145     H      0.035060000000     0.947170000000     0.976230000000     0.195824   
H146     H      0.426950000000     0.542210000000     0.579640000000     0.197922   
H147     H      0.032490000000     0.648230000000     0.979740000000     0.203959   
H148     H      0.429510000000     0.545840000000     0.871720000000     0.199766   
H149     H      0.482130000000     0.507470000000     0.648560000000     0.130321   
H150     H      0.461590000000     0.608880000000     0.659940000000     0.195318   
H151     H      0.466360000000     0.713350000000     0.524770000000     0.141685   
H152     H      0.497430000000     0.721570000000     0.929120000000     0.199363   
H153     H      0.496700000000     0.588270000000     0.804730000000     0.138842   
H154     H      0.459270000000     0.979280000000     0.794480000000     0.203783   
H155     H      0.469440000000     0.877030000000     0.929350000000     0.136097   
H156     H      0.497360000000     0.868960000000     0.522110000000     0.193331   
H157     H      0.467550000000     0.722620000000     0.881040000000     0.210441   
H158     H      0.006040000000     0.987940000000     0.795510000000     0.208505   
H159     H      0.469990000000     0.867040000000     0.572680000000     0.208633   
H160     H      0.470260000000     0.667020000000     0.648220000000     0.209595   
H161     H      0.177760000000     0.890420000000     0.722600000000     0.195634   
H162     H      0.283310000000     0.793050000000     0.828510000000     0.195391   
H163     H      0.180200000000     0.689290000000     0.722230000000     0.202412   
H164     H      0.285890000000     0.793660000000     0.620660000000     0.197037   
H165     H      0.251110000000     0.840830000000     0.896700000000     0.129619   
H166     H      0.218660000000     0.749940000000     0.903840000000     0.200249   
H167     H      0.249080000000     0.623720000000     0.772380000000     0.138674   
H168     H      0.242450000000     0.615710000000     0.674140000000     0.200296   
H169     H      0.249440000000     0.731740000000     0.547560000000     0.128962   
H170     H      0.231600000000     0.831200000000     0.543410000000     0.192462   
H171     H      0.246420000000     0.961190000000     0.678020000000     0.138807   
H172     H      0.214880000000     0.967110000000     0.768960000000     0.194069   
H173     H      0.198060000000     0.623060000000     0.654070000000     0.20129    
H174     H      0.232670000000     0.891430000000     0.541650000000     0.209921   
H175     H      0.242070000000     0.969290000000     0.819670000000     0.209271   
H176     H      0.242790000000     0.698100000000     0.905760000000     0.209193   
H177     H      0.078960000000     0.667580000000     0.643280000000     0.111794   
H178     H      0.134170000000     0.669230000000     0.557730000000     0.112665   
H179     H      0.137380000000     0.643870000000     0.879890000000     0.116926   
H180     H      0.075320000000     0.694620000000     0.821300000000     0.115987   
H181     H      0.137370000000     0.949440000000     0.576810000000     0.11627    
H182     H      0.075540000000     0.887250000000     0.622520000000     0.11612    
H183     H      0.324760000000     0.641140000000     0.573610000000     0.119475   
H184     H      0.387970000000     0.694730000000     0.628200000000     0.112099   
H185     H      0.326190000000     0.946880000000     0.877630000000     0.110804   
H186     H      0.386770000000     0.890960000000     0.822110000000     0.113522   
H187     H      0.386880000000     0.697870000000     0.824060000000     0.112839   
H188     H      0.325790000000     0.640700000000     0.877630000000     0.112161   
H189     H      0.075760000000     0.891430000000     0.822170000000     0.115508   
H190     H      0.137150000000     0.946550000000     0.877810000000     0.11512    
H191     H      0.325860000000     0.944890000000     0.570810000000     0.114004   
H192     H      0.387040000000     0.891070000000     0.628030000000     0.112391   
N49      N      0.090030000000     0.657100000000     0.608950000000    -0.176662   
N50      N      0.123050000000     0.679780000000     0.592010000000    -0.177156   
N51      N      0.109660000000     0.652240000000     0.869440000000    -0.178437   
N52      N      0.103040000000     0.686260000000     0.831760000000    -0.178193   
N53      N      0.109690000000     0.938390000000     0.584310000000    -0.178354   
N54      N      0.103230000000     0.898280000000     0.614990000000    -0.178307   
N55      N      0.352580000000     0.650070000000     0.583000000000    -0.182326   
N56      N      0.360150000000     0.685870000000     0.618730000000    -0.181064   
N57      N      0.353740000000     0.936990000000     0.867780000000    -0.177888   
N58      N      0.359230000000     0.900850000000     0.831980000000    -0.178439   
N59      N      0.359320000000     0.687430000000     0.833100000000    -0.179289   
N60      N      0.353360000000     0.651110000000     0.868550000000    -0.178998   
N61      N      0.103400000000     0.900640000000     0.832050000000    -0.173765   
N62      N      0.109510000000     0.937350000000     0.867900000000    -0.173707   
N63      N      0.353440000000     0.935560000000     0.581080000000    -0.179354   
N64      N      0.359470000000     0.900450000000     0.617810000000    -0.179175   
O193     O      0.417440000000     0.948810000000     0.879230000000    -0.370511   
O194     O      0.373900000000     0.992320000000     0.922160000000    -0.374948   
O195     O      0.046600000000     0.949860000000     0.571830000000    -0.368091   
O196     O      0.090220000000     0.997220000000     0.533360000000    -0.380783   
O197     O      0.416700000000     0.947510000000     0.570640000000    -0.373117   
O198     O      0.373610000000     0.990720000000     0.526510000000    -0.374781   
O199     O      0.046410000000     0.950320000000     0.878810000000    -0.365359   
O200     O      0.089130000000     0.993690000000     0.923800000000    -0.355249   
O201     O      0.484010000000     0.887080000000     0.899780000000    -0.340421   
O202     O      0.482630000000     0.981800000000     0.812830000000    -0.532454   
O203     O      0.483150000000     0.885380000000     0.547610000000    -0.526082   
O204     O      0.480800000000     0.972910000000     0.639690000000    -0.341164   
O205     O      0.445540000000     0.971110000000     0.975080000000    -0.500545   
O206     O      0.018420000000     0.974740000000     0.976470000000    -0.625418   
O207     O      0.046610000000     0.639520000000     0.880700000000    -0.370558   
O208     O      0.090330000000     0.599330000000     0.926940000000    -0.379914   
O209     O      0.414800000000     0.637710000000     0.571730000000    -0.387723   
O210     O      0.372040000000     0.594640000000     0.527630000000    -0.375853   
O211     O      0.036100000000     0.616850000000     0.597030000000    -0.370974   
O212     O      0.081590000000     0.608880000000     0.538950000000    -0.351617   
O213     O      0.416670000000     0.640880000000     0.880940000000    -0.369984   
O214     O      0.373590000000     0.595620000000     0.922780000000    -0.374541   
O215     O      0.482190000000     0.704690000000     0.905020000000    -0.526731   
O216     O      0.481510000000     0.616960000000     0.813630000000    -0.345556   
O217     O      0.490010000000     0.700900000000     0.539680000000    -0.361469   
O218     O      0.468030000000     0.634160000000     0.636820000000    -0.512499   
O219     O      0.016770000000     0.619850000000     0.978740000000    -0.631663   
O220     O      0.443490000000     0.617510000000     0.976360000000    -0.502217   
O221     O      0.018730000000     0.546910000000     0.904250000000    -0.491986   
O222     O      0.443670000000     0.542770000000     0.551350000000    -0.641756   
O223     O      0.445670000000     0.545800000000     0.900580000000    -0.636351   
O224     O      0.016440000000     0.544630000000     0.553050000000    -0.488648   
O225     O      0.296200000000     0.888790000000     0.628490000000    -0.37394    
O226     O      0.339260000000     0.845780000000     0.672880000000    -0.375812   
O227     O      0.166500000000     0.887720000000     0.821030000000    -0.362078   
O228     O      0.123740000000     0.844310000000     0.776130000000    -0.354736   
O229     O      0.295510000000     0.889080000000     0.820590000000    -0.372919   
O230     O      0.339010000000     0.845620000000     0.777490000000    -0.374825   
O231     O      0.166310000000     0.886800000000     0.627480000000    -0.367447   
O232     O      0.122670000000     0.839770000000     0.666340000000    -0.380658   
O233     O      0.230030000000     0.951880000000     0.649870000000    -0.34704    
O234     O      0.232000000000     0.861810000000     0.560410000000    -0.525118   
O235     O      0.228970000000     0.950810000000     0.794670000000    -0.52575    
O236     O      0.229600000000     0.861800000000     0.887400000000    -0.343429   
O237     O      0.267430000000     0.866360000000     0.723980000000    -0.500424   
O238     O      0.194410000000     0.862860000000     0.722690000000    -0.626884   
O239     O      0.176830000000     0.720400000000     0.603920000000    -0.374      
O240     O      0.131290000000     0.728250000000     0.661880000000    -0.352322   
O241     O      0.296020000000     0.697540000000     0.820510000000    -0.375925   
O242     O      0.339130000000     0.742520000000     0.778430000000    -0.375473   
O243     O      0.166090000000     0.698930000000     0.820510000000    -0.365815   
O244     O      0.122410000000     0.738860000000     0.773970000000    -0.379398   
O245     O      0.297930000000     0.698540000000     0.629700000000    -0.383924   
O246     O      0.340710000000     0.741770000000     0.673600000000    -0.377034   
O247     O      0.222500000000     0.636430000000     0.662110000000    -0.532894   
O248     O      0.244850000000     0.700460000000     0.564120000000    -0.323623   
O249     O      0.230570000000     0.633070000000     0.798170000000    -0.344612   
O250     O      0.230860000000     0.723490000000     0.886910000000    -0.529799   
O251     O      0.195960000000     0.717650000000     0.722770000000    -0.632471   
O252     O      0.269230000000     0.719930000000     0.725130000000    -0.504336   
O253     O      0.196410000000     0.791740000000     0.647300000000    -0.488283   
O254     O      0.267110000000     0.792830000000     0.799700000000    -0.636818   
O255     O      0.269160000000     0.793490000000     0.648960000000    -0.64069    
O256     O      0.194160000000     0.791820000000     0.796030000000    -0.489803   
Zr37     Zr     0.482350000000     0.974670000000     0.901900000000     1.37306    
Zr38     Zr     0.481420000000     0.972100000000     0.549470000000     1.37641    
Zr39     Zr     0.481540000000     0.617940000000     0.903850000000     1.37724    
Zr40     Zr     0.478540000000     0.615130000000     0.550750000000     1.38474    
Zr41     Zr     0.409920000000     0.543720000000     0.975280000000     1.39654    
Zr42     Zr     0.053900000000     0.548160000000     0.979940000000     1.36726    
Zr43     Zr     0.231480000000     0.864260000000     0.649680000000     1.37605    
Zr44     Zr     0.230550000000     0.864110000000     0.797150000000     1.37172    
Zr45     Zr     0.234200000000     0.721210000000     0.650670000000     1.38376    
Zr46     Zr     0.231180000000     0.720710000000     0.797630000000     1.37631    
Zr47     Zr     0.302900000000     0.793660000000     0.725040000000     1.39639    
Zr48     Zr     0.158930000000     0.789410000000     0.720420000000     1.36733    
C65      C      0.882910000000     0.460050000000     0.390430000000     0.40158    
C66      C      0.580990000000     0.462870000000     0.062650000000     0.408618   
C67      C      0.882440000000     0.458600000000     0.058540000000     0.407962   
C68      C      0.580580000000     0.461400000000     0.390860000000     0.390191   
C69      C      0.581030000000     0.129540000000     0.393150000000     0.408348   
C70      C      0.880870000000     0.126590000000     0.059890000000     0.418133   
C71      C      0.569000000000     0.126290000000     0.080630000000     0.393359   
C72      C      0.882390000000     0.128500000000     0.391600000000     0.407411   
C73      C      0.830460000000     0.377660000000     0.140590000000     0.407456   
C74      C      0.632330000000     0.376610000000     0.309050000000     0.391163   
C75      C      0.830040000000     0.377830000000     0.309300000000     0.402582   
C76      C      0.631920000000     0.373900000000     0.136790000000     0.408729   
C77      C      0.643950000000     0.210780000000     0.120260000000     0.389228   
C78      C      0.830300000000     0.209870000000     0.309850000000     0.407452   
C79      C      0.631680000000     0.208860000000     0.307960000000     0.408524   
C80      C      0.831870000000     0.209610000000     0.141580000000     0.415982   
H193     H      0.535060000000     0.447170000000     0.476230000000     0.195583   
H194     H      0.926950000000     0.042200000000     0.079640000000     0.197823   
H195     H      0.532490000000     0.148230000000     0.479740000000     0.203614   
H196     H      0.929510000000     0.045840000000     0.371720000000     0.199586   
H197     H      0.982130000000     0.007470000000     0.148560000000     0.129601   
H198     H      0.961590000000     0.108880000000     0.159940000000     0.195009   
H199     H      0.966360000000     0.213340000000     0.024770000000     0.141881   
H200     H      0.997430000000     0.221570000000     0.429120000000     0.19881    
H201     H      0.996690000000     0.088270000000     0.304730000000     0.13823    
H202     H      0.959270000000     0.479270000000     0.294480000000     0.204014   
H203     H      0.969440000000     0.377030000000     0.429350000000     0.136146   
H204     H      0.997360000000     0.368960000000     0.022110000000     0.192829   
H205     H      0.967550000000     0.222620000000     0.381040000000     0.210202   
H206     H      0.506050000000     0.487940000000     0.295510000000     0.205638   
H207     H      0.969990000000     0.367040000000     0.072680000000     0.20839    
H208     H      0.970270000000     0.167020000000     0.148220000000     0.209211   
H209     H      0.677760000000     0.390420000000     0.222600000000     0.195574   
H210     H      0.783310000000     0.293050000000     0.328500000000     0.195552   
H211     H      0.680200000000     0.189290000000     0.222230000000     0.202234   
H212     H      0.785890000000     0.293660000000     0.120660000000     0.197048   
H213     H      0.751110000000     0.340830000000     0.396700000000     0.129663   
H214     H      0.718660000000     0.249930000000     0.403840000000     0.200287   
H215     H      0.749090000000     0.123720000000     0.272380000000     0.138563   
H216     H      0.742450000000     0.115710000000     0.174130000000     0.200312   
H217     H      0.749440000000     0.231730000000     0.047560000000     0.129112   
H218     H      0.731590000000     0.331200000000     0.043410000000     0.192525   
H219     H      0.746420000000     0.461190000000     0.178020000000     0.138779   
H220     H      0.714880000000     0.467110000000     0.268960000000     0.194083   
H221     H      0.698060000000     0.123060000000     0.154070000000     0.201254   
H222     H      0.732670000000     0.391430000000     0.041650000000     0.209986   
H223     H      0.742070000000     0.469290000000     0.319670000000     0.209315   
H224     H      0.742790000000     0.198090000000     0.405760000000     0.209076   
H225     H      0.578960000000     0.167580000000     0.143280000000     0.111467   
H226     H      0.634180000000     0.169230000000     0.057740000000     0.112663   
H227     H      0.637390000000     0.143860000000     0.379880000000     0.116863   
H228     H      0.575320000000     0.194620000000     0.321300000000     0.115517   
H229     H      0.637380000000     0.449440000000     0.076800000000     0.116191   
H230     H      0.575540000000     0.387250000000     0.122530000000     0.115643   
H231     H      0.824760000000     0.141140000000     0.073610000000     0.119519   
H232     H      0.887970000000     0.194730000000     0.128200000000     0.112062   
H233     H      0.826190000000     0.446890000000     0.377630000000     0.110854   
H234     H      0.886770000000     0.390950000000     0.322100000000     0.113453   
H235     H      0.886880000000     0.197860000000     0.324060000000     0.112807   
H236     H      0.825800000000     0.140690000000     0.377620000000     0.112249   
H237     H      0.575760000000     0.391420000000     0.322170000000     0.115065   
H238     H      0.637160000000     0.446550000000     0.377810000000     0.11505    
H239     H      0.825860000000     0.444890000000     0.070820000000     0.114014   
H240     H      0.887040000000     0.391070000000     0.128020000000     0.11235    
N65      N      0.590020000000     0.157100000000     0.108950000000    -0.176865   
N66      N      0.623050000000     0.179770000000     0.092010000000    -0.177271   
N67      N      0.609660000000     0.152240000000     0.369440000000    -0.178516   
N68      N      0.603040000000     0.186260000000     0.331760000000    -0.178232   
N69      N      0.609690000000     0.438390000000     0.084310000000    -0.178393   
N70      N      0.603230000000     0.398280000000     0.114990000000    -0.1783     
N71      N      0.852580000000     0.150070000000     0.083000000000    -0.182355   
N72      N      0.860150000000     0.185870000000     0.118730000000    -0.181022   
N73      N      0.853730000000     0.436990000000     0.367780000000    -0.177849   
N74      N      0.859230000000     0.400840000000     0.331980000000    -0.178465   
N75      N      0.859320000000     0.187430000000     0.333100000000    -0.17934    
N76      N      0.853360000000     0.151110000000     0.368560000000    -0.179087   
N77      N      0.603400000000     0.400640000000     0.332050000000    -0.173772   
N78      N      0.609510000000     0.437350000000     0.367900000000    -0.173795   
N79      N      0.853440000000     0.435560000000     0.081090000000    -0.179228   
N80      N      0.859470000000     0.400450000000     0.117810000000    -0.179192   
O257     O      0.917440000000     0.448810000000     0.379220000000    -0.370219   
O258     O      0.873890000000     0.492320000000     0.422160000000    -0.374772   
O259     O      0.546600000000     0.449860000000     0.071830000000    -0.369355   
O260     O      0.590220000000     0.497220000000     0.033360000000    -0.380924   
O261     O      0.916700000000     0.447500000000     0.070640000000    -0.37289    
O262     O      0.873610000000     0.490720000000     0.026510000000    -0.374552   
O263     O      0.546410000000     0.450320000000     0.378810000000    -0.3665     
O264     O      0.589130000000     0.493690000000     0.423800000000    -0.355598   
O265     O      0.984010000000     0.387080000000     0.399780000000    -0.340944   
O266     O      0.982630000000     0.481800000000     0.312840000000    -0.534697   
O267     O      0.983150000000     0.385380000000     0.047610000000    -0.526011   
O268     O      0.980800000000     0.472910000000     0.139690000000    -0.341909   
O269     O      0.945540000000     0.471110000000     0.475090000000    -0.500262   
O270     O      0.518410000000     0.474740000000     0.476470000000    -0.627169   
O271     O      0.546610000000     0.139520000000     0.380700000000    -0.371867   
O272     O      0.590330000000     0.099330000000     0.426940000000    -0.380014   
O273     O      0.914800000000     0.137720000000     0.071720000000    -0.387447   
O274     O      0.872040000000     0.094650000000     0.027630000000    -0.375464   
O275     O      0.536110000000     0.116850000000     0.097030000000    -0.372503   
O276     O      0.581590000000     0.108870000000     0.038950000000    -0.351656   
O277     O      0.916670000000     0.140880000000     0.380940000000    -0.369738   
O278     O      0.873600000000     0.095620000000     0.422780000000    -0.374496   
O279     O      0.982190000000     0.204690000000     0.405020000000    -0.526628   
O280     O      0.981520000000     0.116960000000     0.313620000000    -0.345887   
O281     O      0.990010000000     0.200900000000     0.039680000000    -0.362134   
O282     O      0.968030000000     0.134160000000     0.136820000000    -0.512606   
O283     O      0.516770000000     0.119840000000     0.478740000000    -0.633289   
O284     O      0.943490000000     0.117510000000     0.476350000000    -0.501737   
O285     O      0.518730000000     0.046910000000     0.404260000000    -0.494136   
O286     O      0.943670000000     0.042770000000     0.051350000000    -0.641519   
O287     O      0.945670000000     0.045800000000     0.400590000000    -0.636249   
O288     O      0.516440000000     0.044640000000     0.053050000000    -0.490552   
O289     O      0.796200000000     0.388800000000     0.128490000000    -0.373679   
O290     O      0.839260000000     0.345770000000     0.172880000000    -0.375778   
O291     O      0.666500000000     0.387710000000     0.321040000000    -0.362013   
O292     O      0.623750000000     0.344310000000     0.276130000000    -0.355084   
O293     O      0.795510000000     0.389080000000     0.320590000000    -0.373001   
O294     O      0.839010000000     0.345630000000     0.277490000000    -0.374987   
O295     O      0.666310000000     0.386810000000     0.127480000000    -0.36745    
O296     O      0.622670000000     0.339760000000     0.166340000000    -0.380821   
O297     O      0.730030000000     0.451880000000     0.149870000000    -0.347076   
O298     O      0.732000000000     0.361810000000     0.060410000000    -0.525125   
O299     O      0.728970000000     0.450820000000     0.294670000000    -0.525804   
O300     O      0.729600000000     0.361800000000     0.387400000000    -0.343439   
O301     O      0.767430000000     0.366360000000     0.223980000000    -0.500367   
O302     O      0.694410000000     0.362860000000     0.222700000000    -0.626766   
O303     O      0.676830000000     0.220400000000     0.103920000000    -0.374052   
O304     O      0.631290000000     0.228240000000     0.161870000000    -0.352496   
O305     O      0.796020000000     0.197540000000     0.320510000000    -0.375826   
O306     O      0.839130000000     0.242520000000     0.278430000000    -0.375524   
O307     O      0.666090000000     0.198930000000     0.320510000000    -0.365856   
O308     O      0.622410000000     0.238860000000     0.273980000000    -0.37978    
O309     O      0.797930000000     0.198530000000     0.129700000000    -0.383853   
O310     O      0.840720000000     0.241770000000     0.173600000000    -0.376974   
O311     O      0.722500000000     0.136430000000     0.162110000000    -0.53293    
O312     O      0.744850000000     0.200460000000     0.064120000000    -0.323671   
O313     O      0.730570000000     0.133070000000     0.298170000000    -0.344565   
O314     O      0.730860000000     0.223490000000     0.386900000000    -0.529686   
O315     O      0.695970000000     0.217650000000     0.222780000000    -0.632319   
O316     O      0.769230000000     0.219930000000     0.225120000000    -0.504334   
O317     O      0.696410000000     0.291740000000     0.147300000000    -0.488248   
O318     O      0.767110000000     0.292830000000     0.299700000000    -0.637037   
O319     O      0.769160000000     0.293500000000     0.148960000000    -0.64064    
O320     O      0.694160000000     0.291820000000     0.296030000000    -0.489787   
Zr49     Zr     0.982350000000     0.474670000000     0.401900000000     1.36918    
Zr50     Zr     0.981420000000     0.472100000000     0.049470000000     1.37278    
Zr51     Zr     0.981540000000     0.117930000000     0.403850000000     1.37374    
Zr52     Zr     0.978540000000     0.115130000000     0.050760000000     1.38171    
Zr53     Zr     0.909920000000     0.043710000000     0.475280000000     1.39643    
Zr54     Zr     0.553900000000     0.048160000000     0.479940000000     1.36697    
Zr55     Zr     0.731470000000     0.364260000000     0.149680000000     1.37605    
Zr56     Zr     0.730560000000     0.364100000000     0.297160000000     1.37176    
Zr57     Zr     0.734200000000     0.221210000000     0.150670000000     1.38379    
Zr58     Zr     0.731180000000     0.220710000000     0.297630000000     1.37645    
Zr59     Zr     0.802900000000     0.293660000000     0.225040000000     1.39638    
Zr60     Zr     0.658920000000     0.289410000000     0.220430000000     1.36715    
C81      C      0.882910000000     0.460060000000     0.890430000000     0.40162    
C82      C      0.580990000000     0.462870000000     0.562650000000     0.408534   
C83      C      0.882440000000     0.458600000000     0.558540000000     0.408003   
C84      C      0.580580000000     0.461400000000     0.890850000000     0.390147   
C85      C      0.581030000000     0.129540000000     0.893150000000     0.408316   
C86      C      0.880870000000     0.126590000000     0.559880000000     0.418093   
C87      C      0.569000000000     0.126290000000     0.580630000000     0.393397   
C88      C      0.882390000000     0.128500000000     0.891600000000     0.407324   
C89      C      0.830460000000     0.377660000000     0.640590000000     0.407541   
C90      C      0.632330000000     0.376610000000     0.809050000000     0.391199   
C91      C      0.830040000000     0.377840000000     0.809300000000     0.402563   
C92      C      0.631920000000     0.373900000000     0.636790000000     0.408732   
C93      C      0.643950000000     0.210780000000     0.620270000000     0.389043   
C94      C      0.830300000000     0.209870000000     0.809850000000     0.407445   
C95      C      0.631680000000     0.208860000000     0.807960000000     0.408407   
C96      C      0.831870000000     0.209610000000     0.641580000000     0.415969   
H241     H      0.535060000000     0.447180000000     0.976230000000     0.195629   
H242     H      0.926950000000     0.042200000000     0.579640000000     0.19786    
H243     H      0.532490000000     0.148230000000     0.979740000000     0.203513   
H244     H      0.929510000000     0.045840000000     0.871720000000     0.199721   
H245     H      0.982130000000     0.007470000000     0.648560000000     0.129614   
H246     H      0.961590000000     0.108880000000     0.659940000000     0.194998   
H247     H      0.966360000000     0.213340000000     0.524770000000     0.141787   
H248     H      0.997430000000     0.221570000000     0.929120000000     0.198726   
H249     H      0.996690000000     0.088270000000     0.804730000000     0.138228   
H250     H      0.959270000000     0.479270000000     0.794480000000     0.204161   
H251     H      0.969440000000     0.377030000000     0.929350000000     0.136073   
H252     H      0.997360000000     0.368960000000     0.522110000000     0.192711   
H253     H      0.967550000000     0.222620000000     0.881040000000     0.210177   
H254     H      0.506040000000     0.487940000000     0.795510000000     0.205911   
H255     H      0.969990000000     0.367040000000     0.572680000000     0.208362   
H256     H      0.970270000000     0.167020000000     0.648220000000     0.209189   
H257     H      0.677760000000     0.390420000000     0.722600000000     0.195587   
H258     H      0.783310000000     0.293050000000     0.828510000000     0.195403   
H259     H      0.680200000000     0.189290000000     0.722230000000     0.202365   
H260     H      0.785890000000     0.293660000000     0.620660000000     0.197026   
H261     H      0.751110000000     0.340830000000     0.896700000000     0.129622   
H262     H      0.718660000000     0.249930000000     0.903840000000     0.200315   
H263     H      0.749090000000     0.123720000000     0.772380000000     0.138564   
H264     H      0.742450000000     0.115710000000     0.674140000000     0.200192   
H265     H      0.749440000000     0.231730000000     0.547560000000     0.129055   
H266     H      0.731590000000     0.331200000000     0.543410000000     0.19245    
H267     H      0.746420000000     0.461190000000     0.678020000000     0.138783   
H268     H      0.714880000000     0.467110000000     0.768960000000     0.194093   
H269     H      0.698050000000     0.123060000000     0.654070000000     0.20104    
H270     H      0.732670000000     0.391430000000     0.541650000000     0.209905   
H271     H      0.742070000000     0.469290000000     0.819670000000     0.209312   
H272     H      0.742790000000     0.198090000000     0.905760000000     0.209104   
H273     H      0.578960000000     0.167570000000     0.643280000000     0.11148    
H274     H      0.634170000000     0.169230000000     0.557730000000     0.112585   
H275     H      0.637390000000     0.143860000000     0.879890000000     0.116812   
H276     H      0.575320000000     0.194620000000     0.821300000000     0.115505   
H277     H      0.637370000000     0.449440000000     0.576810000000     0.116213   
H278     H      0.575540000000     0.387250000000     0.622520000000     0.115643   
H279     H      0.824760000000     0.141140000000     0.573610000000     0.119475   
H280     H      0.887970000000     0.194730000000     0.628200000000     0.112061   
H281     H      0.826190000000     0.446890000000     0.877630000000     0.110812   
H282     H      0.886770000000     0.390960000000     0.822110000000     0.113477   
H283     H      0.886880000000     0.197860000000     0.824060000000     0.112799   
H284     H      0.825800000000     0.140690000000     0.877630000000     0.112176   
H285     H      0.575760000000     0.391430000000     0.822170000000     0.115069   
H286     H      0.637150000000     0.446550000000     0.877810000000     0.115065   
H287     H      0.825860000000     0.444890000000     0.570810000000     0.113984   
H288     H      0.887040000000     0.391070000000     0.628030000000     0.112334   
N81      N      0.590020000000     0.157100000000     0.608950000000    -0.176903   
N82      N      0.623050000000     0.179770000000     0.592010000000    -0.177195   
N83      N      0.609660000000     0.152240000000     0.869440000000    -0.178508   
N84      N      0.603040000000     0.186260000000     0.831760000000    -0.178218   
N85      N      0.609690000000     0.438390000000     0.584310000000    -0.178459   
N86      N      0.603230000000     0.398280000000     0.614990000000    -0.178319   
N87      N      0.852580000000     0.150070000000     0.583000000000    -0.182333   
N88      N      0.860150000000     0.185870000000     0.618730000000    -0.181029   
N89      N      0.853730000000     0.436990000000     0.867780000000    -0.177844   
N90      N      0.859230000000     0.400840000000     0.831980000000    -0.178522   
N91      N      0.859320000000     0.187430000000     0.833100000000    -0.17934    
N92      N      0.853360000000     0.151110000000     0.868550000000    -0.17903    
N93      N      0.603400000000     0.400640000000     0.832050000000    -0.173797   
N94      N      0.609510000000     0.437350000000     0.867900000000    -0.173875   
N95      N      0.853440000000     0.435560000000     0.581080000000    -0.179277   
N96      N      0.859470000000     0.400450000000     0.617810000000    -0.179209   
O321     O      0.917440000000     0.448810000000     0.879230000000    -0.37025    
O322     O      0.873890000000     0.492320000000     0.922160000000    -0.37487    
O323     O      0.546600000000     0.449860000000     0.571830000000    -0.369385   
O324     O      0.590220000000     0.497230000000     0.533360000000    -0.381127   
O325     O      0.916700000000     0.447500000000     0.570640000000    -0.37293    
O326     O      0.873610000000     0.490720000000     0.526510000000    -0.374768   
O327     O      0.546410000000     0.450320000000     0.878810000000    -0.366521   
O328     O      0.589130000000     0.493690000000     0.923800000000    -0.355549   
O329     O      0.984010000000     0.387080000000     0.899780000000    -0.340965   
O330     O      0.982630000000     0.481800000000     0.812830000000    -0.535042   
O331     O      0.983150000000     0.385380000000     0.547610000000    -0.526015   
O332     O      0.980800000000     0.472910000000     0.639690000000    -0.341879   
O333     O      0.945540000000     0.471110000000     0.975080000000    -0.50042    
O334     O      0.518410000000     0.474740000000     0.976470000000    -0.627357   
O335     O      0.546610000000     0.139520000000     0.880700000000    -0.371861   
O336     O      0.590330000000     0.099330000000     0.926940000000    -0.380039   
O337     O      0.914800000000     0.137720000000     0.571730000000    -0.387419   
O338     O      0.872040000000     0.094650000000     0.527630000000    -0.375724   
O339     O      0.536110000000     0.116850000000     0.597030000000    -0.372495   
O340     O      0.581590000000     0.108880000000     0.538950000000    -0.351871   
O341     O      0.916670000000     0.140880000000     0.880940000000    -0.369727   
O342     O      0.873600000000     0.095620000000     0.922780000000    -0.374515   
O343     O      0.982190000000     0.204690000000     0.905020000000    -0.52663    
O344     O      0.981520000000     0.116960000000     0.813630000000    -0.345901   
O345     O      0.990010000000     0.200900000000     0.539680000000    -0.3622     
O346     O      0.968030000000     0.134160000000     0.636820000000    -0.512492   
O347     O      0.516770000000     0.119840000000     0.978740000000    -0.633359   
O348     O      0.943490000000     0.117510000000     0.976360000000    -0.501873   
O349     O      0.518730000000     0.046910000000     0.904250000000    -0.494055   
O350     O      0.943670000000     0.042770000000     0.551350000000    -0.641644   
O351     O      0.945670000000     0.045800000000     0.900580000000    -0.636283   
O352     O      0.516440000000     0.044640000000     0.553050000000    -0.490657   
O353     O      0.796200000000     0.388800000000     0.628490000000    -0.373719   
O354     O      0.839260000000     0.345780000000     0.672880000000    -0.375824   
O355     O      0.666500000000     0.387710000000     0.821030000000    -0.362073   
O356     O      0.623750000000     0.344310000000     0.776130000000    -0.355075   
O357     O      0.795510000000     0.389080000000     0.820590000000    -0.373017   
O358     O      0.839010000000     0.345630000000     0.777490000000    -0.374921   
O359     O      0.666310000000     0.386810000000     0.627480000000    -0.367469   
O360     O      0.622670000000     0.339760000000     0.666340000000    -0.38086    
O361     O      0.730030000000     0.451880000000     0.649870000000    -0.347091   
O362     O      0.732000000000     0.361810000000     0.560410000000    -0.52512    
O363     O      0.728970000000     0.450820000000     0.794670000000    -0.525869   
O364     O      0.729600000000     0.361800000000     0.887400000000    -0.343446   
O365     O      0.767430000000     0.366370000000     0.723980000000    -0.500358   
O366     O      0.694410000000     0.362860000000     0.722690000000    -0.626816   
O367     O      0.676830000000     0.220400000000     0.603920000000    -0.374005   
O368     O      0.631280000000     0.228240000000     0.661880000000    -0.352445   
O369     O      0.796020000000     0.197540000000     0.820510000000    -0.375816   
O370     O      0.839130000000     0.242520000000     0.778430000000    -0.375509   
O371     O      0.666090000000     0.198930000000     0.820510000000    -0.365837   
O372     O      0.622410000000     0.238860000000     0.773970000000    -0.379702   
O373     O      0.797930000000     0.198530000000     0.629700000000    -0.383864   
O374     O      0.840720000000     0.241770000000     0.673600000000    -0.376976   
O375     O      0.722500000000     0.136430000000     0.662110000000    -0.532643   
O376     O      0.744850000000     0.200460000000     0.564120000000    -0.323718   
O377     O      0.730570000000     0.133070000000     0.798170000000    -0.344578   
O378     O      0.730860000000     0.223490000000     0.886910000000    -0.529801   
O379     O      0.695960000000     0.217650000000     0.722770000000    -0.632401   
O380     O      0.769230000000     0.219930000000     0.725130000000    -0.504327   
O381     O      0.696410000000     0.291740000000     0.647300000000    -0.488294   
O382     O      0.767110000000     0.292830000000     0.799700000000    -0.63684    
O383     O      0.769160000000     0.293500000000     0.648960000000    -0.640638   
O384     O      0.694160000000     0.291820000000     0.796030000000    -0.48972    
Zr61     Zr     0.982350000000     0.474670000000     0.901900000000     1.3692     
Zr62     Zr     0.981420000000     0.472100000000     0.549470000000     1.37241    
Zr63     Zr     0.981540000000     0.117930000000     0.903850000000     1.37365    
Zr64     Zr     0.978540000000     0.115130000000     0.550750000000     1.38128    
Zr65     Zr     0.909920000000     0.043710000000     0.975280000000     1.39582    
Zr66     Zr     0.553900000000     0.048160000000     0.979940000000     1.36636    
Zr67     Zr     0.731470000000     0.364260000000     0.649680000000     1.37607    
Zr68     Zr     0.730560000000     0.364110000000     0.797150000000     1.3717     
Zr69     Zr     0.734200000000     0.221210000000     0.650670000000     1.38368    
Zr70     Zr     0.731180000000     0.220710000000     0.797630000000     1.37632    
Zr71     Zr     0.802900000000     0.293660000000     0.725040000000     1.39629    
Zr72     Zr     0.658920000000     0.289410000000     0.720420000000     1.36722    
C97      C      0.882910000000     0.960050000000     0.390430000000     0.401562   
C98      C      0.580990000000     0.962860000000     0.062650000000     0.408593   
C99      C      0.882440000000     0.958600000000     0.058540000000     0.407973   
C100     C      0.580580000000     0.961400000000     0.390860000000     0.390187   
C101     C      0.581030000000     0.629530000000     0.393150000000     0.40841    
C102     C      0.880860000000     0.626580000000     0.059890000000     0.417993   
C103     C      0.569000000000     0.626290000000     0.080630000000     0.393473   
C104     C      0.882390000000     0.628500000000     0.391600000000     0.407564   
C105     C      0.830450000000     0.877660000000     0.140590000000     0.407608   
C106     C      0.632330000000     0.876610000000     0.309050000000     0.391323   
C107     C      0.830030000000     0.877840000000     0.309300000000     0.402522   
C108     C      0.631920000000     0.873900000000     0.136790000000     0.408788   
C109     C      0.643950000000     0.710780000000     0.120260000000     0.389242   
C110     C      0.830300000000     0.709870000000     0.309850000000     0.407447   
C111     C      0.631680000000     0.708860000000     0.307960000000     0.408527   
C112     C      0.831870000000     0.709610000000     0.141580000000     0.415949   
H289     H      0.535060000000     0.947180000000     0.476230000000     0.195684   
H290     H      0.926950000000     0.542210000000     0.079640000000     0.19791    
H291     H      0.532490000000     0.648230000000     0.479740000000     0.203607   
H292     H      0.929510000000     0.545840000000     0.371720000000     0.199819   
H293     H      0.982130000000     0.507470000000     0.148560000000     0.129924   
H294     H      0.961580000000     0.608890000000     0.159940000000     0.195156   
H295     H      0.966360000000     0.713350000000     0.024770000000     0.141982   
H296     H      0.997430000000     0.721570000000     0.429120000000     0.198901   
H297     H      0.996690000000     0.588270000000     0.304730000000     0.13822    
H298     H      0.959270000000     0.979280000000     0.294480000000     0.20414    
H299     H      0.969440000000     0.877030000000     0.429350000000     0.136138   
H300     H      0.997360000000     0.868960000000     0.022110000000     0.192825   
H301     H      0.967550000000     0.722620000000     0.381040000000     0.210293   
H302     H      0.506040000000     0.987940000000     0.295510000000     0.205924   
H303     H      0.969990000000     0.867040000000     0.072680000000     0.208385   
H304     H      0.970270000000     0.667020000000     0.148220000000     0.209229   
H305     H      0.677760000000     0.890420000000     0.222600000000     0.195579   
H306     H      0.783310000000     0.793050000000     0.328500000000     0.195551   
H307     H      0.680200000000     0.689300000000     0.222230000000     0.202237   
H308     H      0.785890000000     0.793660000000     0.120660000000     0.197045   
H309     H      0.751110000000     0.840830000000     0.396700000000     0.129674   
H310     H      0.718660000000     0.749940000000     0.403840000000     0.200169   
H311     H      0.749090000000     0.623720000000     0.272380000000     0.138596   
H312     H      0.742450000000     0.615710000000     0.174130000000     0.200384   
H313     H      0.749440000000     0.731730000000     0.047560000000     0.129125   
H314     H      0.731590000000     0.831190000000     0.043410000000     0.192384   
H315     H      0.746410000000     0.961190000000     0.178020000000     0.138813   
H316     H      0.714880000000     0.967110000000     0.268960000000     0.194161   
H317     H      0.698060000000     0.623060000000     0.154070000000     0.201322   
H318     H      0.732670000000     0.891430000000     0.041650000000     0.209968   
H319     H      0.742070000000     0.969290000000     0.319670000000     0.209395   
H320     H      0.742790000000     0.698090000000     0.405760000000     0.209059   
H321     H      0.578960000000     0.667580000000     0.143280000000     0.111479   
H322     H      0.634180000000     0.669230000000     0.057740000000     0.112683   
H323     H      0.637380000000     0.643870000000     0.379880000000     0.116957   
H324     H      0.575320000000     0.694620000000     0.321300000000     0.115523   
H325     H      0.637380000000     0.949440000000     0.076800000000     0.116235   
H326     H      0.575540000000     0.887250000000     0.122530000000     0.115646   
H327     H      0.824760000000     0.641140000000     0.073610000000     0.119535   
H328     H      0.887970000000     0.694730000000     0.128200000000     0.112066   
H329     H      0.826190000000     0.946890000000     0.377630000000     0.110882   
H330     H      0.886770000000     0.890950000000     0.322100000000     0.113434   
H331     H      0.886880000000     0.697870000000     0.324060000000     0.112792   
H332     H      0.825800000000     0.640700000000     0.377620000000     0.112307   
H333     H      0.575760000000     0.891430000000     0.322170000000     0.115114   
H334     H      0.637160000000     0.946550000000     0.377810000000     0.115088   
H335     H      0.825860000000     0.944880000000     0.070820000000     0.114071   
H336     H      0.887040000000     0.891070000000     0.128020000000     0.112355   
N97      N      0.590020000000     0.657090000000     0.108950000000    -0.176902   
N98      N      0.623050000000     0.679780000000     0.092010000000    -0.177295   
N99      N      0.609660000000     0.652240000000     0.369440000000    -0.178558   
N100     N      0.603040000000     0.686260000000     0.331760000000    -0.178221   
N101     N      0.609690000000     0.938390000000     0.084310000000    -0.178403   
N102     N      0.603230000000     0.898280000000     0.114990000000    -0.178305   
N103     N      0.852580000000     0.650070000000     0.083000000000    -0.182346   
N104     N      0.860150000000     0.685870000000     0.118730000000    -0.18101    
N105     N      0.853730000000     0.936990000000     0.367780000000    -0.17783    
N106     N      0.859230000000     0.900850000000     0.331980000000    -0.178381   
N107     N      0.859320000000     0.687430000000     0.333100000000    -0.179315   
N108     N      0.853360000000     0.651110000000     0.368560000000    -0.179116   
N109     N      0.603400000000     0.900630000000     0.332050000000    -0.173841   
N110     N      0.609510000000     0.937350000000     0.367900000000    -0.173786   
N111     N      0.853440000000     0.935560000000     0.081090000000    -0.179233   
N112     N      0.859470000000     0.900450000000     0.117810000000    -0.17916    
O385     O      0.917440000000     0.948800000000     0.379220000000    -0.370162   
O386     O      0.873890000000     0.992320000000     0.422160000000    -0.374662   
O387     O      0.546600000000     0.949860000000     0.071830000000    -0.369334   
O388     O      0.590220000000     0.997220000000     0.033360000000    -0.380659   
O389     O      0.916700000000     0.947510000000     0.070640000000    -0.372903   
O390     O      0.873600000000     0.990720000000     0.026510000000    -0.374378   
O391     O      0.546410000000     0.950320000000     0.378810000000    -0.366482   
O392     O      0.589130000000     0.993690000000     0.423800000000    -0.355387   
O393     O      0.984010000000     0.887080000000     0.399780000000    -0.340986   
O394     O      0.982630000000     0.981810000000     0.312840000000    -0.534935   
O395     O      0.983150000000     0.885380000000     0.047610000000    -0.526052   
O396     O      0.980800000000     0.972910000000     0.139690000000    -0.341605   
O397     O      0.945540000000     0.971110000000     0.475090000000    -0.500191   
O398     O      0.518410000000     0.974740000000     0.476470000000    -0.627133   
O399     O      0.546610000000     0.639520000000     0.380700000000    -0.371865   
O400     O      0.590330000000     0.599330000000     0.426940000000    -0.380017   
O401     O      0.914800000000     0.637720000000     0.071720000000    -0.387287   
O402     O      0.872040000000     0.594640000000     0.027630000000    -0.375441   
O403     O      0.536110000000     0.616850000000     0.097030000000    -0.372522   
O404     O      0.581590000000     0.608880000000     0.038950000000    -0.351676   
O405     O      0.916660000000     0.640870000000     0.380940000000    -0.369833   
O406     O      0.873590000000     0.595620000000     0.422780000000    -0.374433   
O407     O      0.982190000000     0.704700000000     0.405020000000    -0.526762   
O408     O      0.981510000000     0.616960000000     0.313620000000    -0.345802   
O409     O      0.990000000000     0.700900000000     0.039680000000    -0.362236   
O410     O      0.968020000000     0.634160000000     0.136820000000    -0.512714   
O411     O      0.516770000000     0.619840000000     0.478740000000    -0.633291   
O412     O      0.943490000000     0.617520000000     0.476350000000    -0.501805   
O413     O      0.518730000000     0.546910000000     0.404260000000    -0.493993   
O414     O      0.943670000000     0.542770000000     0.051350000000    -0.641467   
O415     O      0.945660000000     0.545800000000     0.400590000000    -0.63628    
O416     O      0.516440000000     0.544630000000     0.053050000000    -0.490419   
O417     O      0.796200000000     0.888800000000     0.128490000000    -0.373803   
O418     O      0.839260000000     0.845780000000     0.172880000000    -0.375817   
O419     O      0.666490000000     0.887710000000     0.321040000000    -0.362092   
O420     O      0.623740000000     0.844310000000     0.276130000000    -0.355085   
O421     O      0.795510000000     0.889070000000     0.320590000000    -0.373111   
O422     O      0.839010000000     0.845620000000     0.277490000000    -0.374874   
O423     O      0.666310000000     0.886800000000     0.127480000000    -0.367465   
O424     O      0.622670000000     0.839760000000     0.166340000000    -0.380825   
O425     O      0.730020000000     0.951880000000     0.149870000000    -0.347007   
O426     O      0.732000000000     0.861810000000     0.060410000000    -0.524953   
O427     O      0.728970000000     0.950820000000     0.294670000000    -0.525885   
O428     O      0.729600000000     0.861800000000     0.387400000000    -0.343429   
O429     O      0.767430000000     0.866370000000     0.223980000000    -0.500319   
O430     O      0.694410000000     0.862860000000     0.222700000000    -0.626775   
O431     O      0.676830000000     0.720400000000     0.103920000000    -0.374049   
O432     O      0.631290000000     0.728250000000     0.161870000000    -0.352492   
O433     O      0.796020000000     0.697540000000     0.320510000000    -0.375817   
O434     O      0.839130000000     0.742520000000     0.278430000000    -0.375515   
O435     O      0.666090000000     0.698930000000     0.320510000000    -0.365848   
O436     O      0.622410000000     0.738860000000     0.273980000000    -0.379786   
O437     O      0.797930000000     0.698540000000     0.129700000000    -0.383874   
O438     O      0.840720000000     0.741780000000     0.173600000000    -0.376935   
O439     O      0.722500000000     0.636430000000     0.162110000000    -0.53302    
O440     O      0.744850000000     0.700460000000     0.064120000000    -0.32367    
O441     O      0.730570000000     0.633070000000     0.298170000000    -0.344517   
O442     O      0.730860000000     0.723490000000     0.386900000000    -0.52954    
O443     O      0.695970000000     0.717660000000     0.222780000000    -0.632379   
O444     O      0.769230000000     0.719930000000     0.225120000000    -0.504326   
O445     O      0.696400000000     0.791740000000     0.147300000000    -0.488154   
O446     O      0.767110000000     0.792830000000     0.299700000000    -0.636986   
O447     O      0.769160000000     0.793490000000     0.148960000000    -0.640609   
O448     O      0.694160000000     0.791820000000     0.296030000000    -0.489756   
Zr73     Zr     0.982350000000     0.974670000000     0.401900000000     1.36962    
Zr74     Zr     0.981420000000     0.972100000000     0.049470000000     1.3731     
Zr75     Zr     0.981540000000     0.617930000000     0.403850000000     1.37361    
Zr76     Zr     0.978540000000     0.615130000000     0.050760000000     1.38166    
Zr77     Zr     0.909930000000     0.543720000000     0.475280000000     1.39696    
Zr78     Zr     0.553900000000     0.548150000000     0.479940000000     1.36751    
Zr79     Zr     0.731470000000     0.864260000000     0.149680000000     1.37595    
Zr80     Zr     0.730560000000     0.864110000000     0.297160000000     1.37175    
Zr81     Zr     0.734200000000     0.721200000000     0.150670000000     1.38385    
Zr82     Zr     0.731180000000     0.720710000000     0.297630000000     1.37645    
Zr83     Zr     0.802900000000     0.793660000000     0.225040000000     1.39634    
Zr84     Zr     0.658920000000     0.789410000000     0.220430000000     1.36725    
C113     C      0.882910000000     0.960060000000     0.890430000000     0.401656   
C114     C      0.580990000000     0.962860000000     0.562650000000     0.408603   
C115     C      0.882440000000     0.958600000000     0.558540000000     0.40801    
C116     C      0.580580000000     0.961400000000     0.890850000000     0.390158   
C117     C      0.581030000000     0.629540000000     0.893150000000     0.408361   
C118     C      0.880860000000     0.626580000000     0.559880000000     0.418008   
C119     C      0.569000000000     0.626290000000     0.580630000000     0.393407   
C120     C      0.882390000000     0.628500000000     0.891600000000     0.407431   
C121     C      0.830450000000     0.877660000000     0.640590000000     0.407653   
C122     C      0.632330000000     0.876620000000     0.809050000000     0.391224   
C123     C      0.830030000000     0.877840000000     0.809300000000     0.402471   
C124     C      0.631920000000     0.873900000000     0.636790000000     0.408901   
C125     C      0.643950000000     0.710780000000     0.620270000000     0.389058   
C126     C      0.830300000000     0.709870000000     0.809850000000     0.407444   
C127     C      0.631680000000     0.708850000000     0.807960000000     0.408379   
C128     C      0.831870000000     0.709610000000     0.641580000000     0.416115   
H337     H      0.535060000000     0.947170000000     0.976230000000     0.195468   
H338     H      0.926950000000     0.542210000000     0.579640000000     0.197954   
H339     H      0.532490000000     0.648230000000     0.979740000000     0.203646   
H340     H      0.929510000000     0.545840000000     0.871720000000     0.199936   
H341     H      0.982130000000     0.507470000000     0.648560000000     0.129937   
H342     H      0.961580000000     0.608880000000     0.659940000000     0.195029   
H343     H      0.966360000000     0.713350000000     0.524770000000     0.141888   
H344     H      0.997430000000     0.721570000000     0.929120000000     0.198734   
H345     H      0.996690000000     0.588270000000     0.804730000000     0.138227   
H346     H      0.959270000000     0.979280000000     0.794480000000     0.204238   
H347     H      0.969440000000     0.877030000000     0.929350000000     0.136062   
H348     H      0.997360000000     0.868960000000     0.522110000000     0.192706   
H349     H      0.967550000000     0.722620000000     0.881040000000     0.210185   
H350     H      0.506040000000     0.987940000000     0.795510000000     0.205995   
H351     H      0.969990000000     0.867040000000     0.572680000000     0.208358   
H352     H      0.970270000000     0.667020000000     0.648220000000     0.209173   
H353     H      0.677760000000     0.890420000000     0.722600000000     0.195601   
H354     H      0.783310000000     0.793050000000     0.828510000000     0.195401   
H355     H      0.680200000000     0.689290000000     0.722230000000     0.202374   
H356     H      0.785890000000     0.793660000000     0.620660000000     0.197043   
H357     H      0.751110000000     0.840830000000     0.896700000000     0.129624   
H358     H      0.718660000000     0.749940000000     0.903840000000     0.200229   
H359     H      0.749090000000     0.623720000000     0.772380000000     0.1386     
H360     H      0.742450000000     0.615710000000     0.674140000000     0.200252   
H361     H      0.749440000000     0.731740000000     0.547560000000     0.128964   
H362     H      0.731590000000     0.831200000000     0.543410000000     0.192454   
H363     H      0.746410000000     0.961190000000     0.678020000000     0.13881    
H364     H      0.714880000000     0.967110000000     0.768960000000     0.194062   
H365     H      0.698050000000     0.623060000000     0.654070000000     0.201093   
H366     H      0.732670000000     0.891430000000     0.541650000000     0.209928   
H367     H      0.742070000000     0.969290000000     0.819670000000     0.209282   
H368     H      0.742790000000     0.698100000000     0.905760000000     0.2092     
H369     H      0.578960000000     0.667580000000     0.643280000000     0.111485   
H370     H      0.634170000000     0.669230000000     0.557730000000     0.112603   
H371     H      0.637380000000     0.643870000000     0.879890000000     0.116909   
H372     H      0.575320000000     0.694620000000     0.821300000000     0.115514   
H373     H      0.637370000000     0.949440000000     0.576810000000     0.116259   
H374     H      0.575540000000     0.887250000000     0.622520000000     0.115654   
H375     H      0.824760000000     0.641140000000     0.573610000000     0.119494   
H376     H      0.887970000000     0.694730000000     0.628200000000     0.112065   
H377     H      0.826190000000     0.946880000000     0.877630000000     0.110867   
H378     H      0.886770000000     0.890960000000     0.822110000000     0.113449   
H379     H      0.886880000000     0.697870000000     0.824060000000     0.112789   
H380     H      0.825800000000     0.640700000000     0.877630000000     0.112229   
H381     H      0.575760000000     0.891430000000     0.822170000000     0.115086   
H382     H      0.637150000000     0.946550000000     0.877810000000     0.115108   
H383     H      0.825860000000     0.944890000000     0.570810000000     0.114022   
H384     H      0.887040000000     0.891070000000     0.628030000000     0.112335   
N113     N      0.590020000000     0.657100000000     0.608950000000    -0.176889   
N114     N      0.623050000000     0.679780000000     0.592010000000    -0.177219   
N115     N      0.609660000000     0.652240000000     0.869440000000    -0.178571   
N116     N      0.603040000000     0.686260000000     0.831760000000    -0.178226   
N117     N      0.609690000000     0.938390000000     0.584310000000    -0.178485   
N118     N      0.603230000000     0.898280000000     0.614990000000    -0.178342   
N119     N      0.852580000000     0.650070000000     0.583000000000    -0.182334   
N120     N      0.860150000000     0.685870000000     0.618730000000    -0.181054   
N121     N      0.853730000000     0.936990000000     0.867780000000    -0.177853   
N122     N      0.859230000000     0.900850000000     0.831980000000    -0.178404   
N123     N      0.859320000000     0.687430000000     0.833100000000    -0.179316   
N124     N      0.853360000000     0.651110000000     0.868550000000    -0.179048   
N125     N      0.603400000000     0.900640000000     0.832050000000    -0.173808   
N126     N      0.609510000000     0.937350000000     0.867900000000    -0.173859   
N127     N      0.853440000000     0.935560000000     0.581080000000    -0.17927    
N128     N      0.859470000000     0.900450000000     0.617810000000    -0.179174   
O449     O      0.917440000000     0.948810000000     0.879230000000    -0.370233   
O450     O      0.873890000000     0.992320000000     0.922160000000    -0.374761   
O451     O      0.546600000000     0.949860000000     0.571830000000    -0.369388   
O452     O      0.590220000000     0.997220000000     0.533360000000    -0.380889   
O453     O      0.916700000000     0.947510000000     0.570640000000    -0.372946   
O454     O      0.873600000000     0.990720000000     0.526510000000    -0.374602   
O455     O      0.546410000000     0.950320000000     0.878810000000    -0.366492   
O456     O      0.589130000000     0.993690000000     0.923800000000    -0.355366   
O457     O      0.984010000000     0.887080000000     0.899780000000    -0.341001   
O458     O      0.982630000000     0.981800000000     0.812830000000    -0.535038   
O459     O      0.983150000000     0.885380000000     0.547610000000    -0.526058   
O460     O      0.980800000000     0.972910000000     0.639690000000    -0.341573   
O461     O      0.945540000000     0.971110000000     0.975080000000    -0.500347   
O462     O      0.518410000000     0.974740000000     0.976470000000    -0.627114   
O463     O      0.546610000000     0.639520000000     0.880700000000    -0.371881   
O464     O      0.590330000000     0.599330000000     0.926940000000    -0.380021   
O465     O      0.914800000000     0.637710000000     0.571730000000    -0.387304   
O466     O      0.872040000000     0.594640000000     0.527630000000    -0.375705   
O467     O      0.536110000000     0.616850000000     0.597030000000    -0.372463   
O468     O      0.581590000000     0.608880000000     0.538950000000    -0.351823   
O469     O      0.916660000000     0.640880000000     0.880940000000    -0.369793   
O470     O      0.873590000000     0.595620000000     0.922780000000    -0.374449   
O471     O      0.982190000000     0.704690000000     0.905020000000    -0.526699   
O472     O      0.981510000000     0.616960000000     0.813630000000    -0.345821   
O473     O      0.990000000000     0.700900000000     0.539680000000    -0.362305   
O474     O      0.968020000000     0.634160000000     0.636820000000    -0.51246    
O475     O      0.516770000000     0.619850000000     0.978740000000    -0.633489   
O476     O      0.943490000000     0.617510000000     0.976360000000    -0.501995   
O477     O      0.518730000000     0.546910000000     0.904250000000    -0.493859   
O478     O      0.943670000000     0.542770000000     0.551350000000    -0.64159    
O479     O      0.945660000000     0.545800000000     0.900580000000    -0.636268   
O480     O      0.516440000000     0.544630000000     0.553050000000    -0.490523   
O481     O      0.796200000000     0.888790000000     0.628490000000    -0.373861   
O482     O      0.839260000000     0.845780000000     0.672880000000    -0.375837   
O483     O      0.666490000000     0.887720000000     0.821030000000    -0.362087   
O484     O      0.623740000000     0.844310000000     0.776130000000    -0.354991   
O485     O      0.795510000000     0.889080000000     0.820590000000    -0.373063   
O486     O      0.839010000000     0.845620000000     0.777490000000    -0.374866   
O487     O      0.666310000000     0.886800000000     0.627480000000    -0.367515   
O488     O      0.622670000000     0.839770000000     0.666340000000    -0.380911   
O489     O      0.730020000000     0.951880000000     0.649870000000    -0.347028   
O490     O      0.732000000000     0.861810000000     0.560410000000    -0.525118   
O491     O      0.728970000000     0.950810000000     0.794670000000    -0.525743   
O492     O      0.729600000000     0.861800000000     0.887400000000    -0.343436   
O493     O      0.767430000000     0.866360000000     0.723980000000    -0.500412   
O494     O      0.694410000000     0.862860000000     0.722690000000    -0.626821   
O495     O      0.676830000000     0.720400000000     0.603920000000    -0.374      
O496     O      0.631280000000     0.728250000000     0.661880000000    -0.352443   
O497     O      0.796020000000     0.697540000000     0.820510000000    -0.375811   
O498     O      0.839130000000     0.742520000000     0.778430000000    -0.375509   
O499     O      0.666090000000     0.698930000000     0.820510000000    -0.36583    
O500     O      0.622410000000     0.738860000000     0.773970000000    -0.379646   
O501     O      0.797930000000     0.698540000000     0.629700000000    -0.383907   
O502     O      0.840710000000     0.741770000000     0.673600000000    -0.377065   
O503     O      0.722500000000     0.636430000000     0.662110000000    -0.532658   
O504     O      0.744850000000     0.700460000000     0.564120000000    -0.323606   
O505     O      0.730570000000     0.633070000000     0.798170000000    -0.344529   
O506     O      0.730860000000     0.723490000000     0.886910000000    -0.529797   
O507     O      0.695960000000     0.717650000000     0.722770000000    -0.632409   
O508     O      0.769230000000     0.719930000000     0.725130000000    -0.504318   
O509     O      0.696400000000     0.791740000000     0.647300000000    -0.488248   
O510     O      0.767110000000     0.792830000000     0.799700000000    -0.636847   
O511     O      0.769160000000     0.793490000000     0.648960000000    -0.640651   
O512     O      0.694160000000     0.791820000000     0.796030000000    -0.489735   
Zr85     Zr     0.982350000000     0.974670000000     0.901900000000     1.36962    
Zr86     Zr     0.981420000000     0.972100000000     0.549470000000     1.37277    
Zr87     Zr     0.981540000000     0.617940000000     0.903850000000     1.37358    
Zr88     Zr     0.978540000000     0.615130000000     0.550750000000     1.38121    
Zr89     Zr     0.909930000000     0.543720000000     0.975280000000     1.3964     
Zr90     Zr     0.553900000000     0.548160000000     0.979940000000     1.36682    
Zr91     Zr     0.731470000000     0.864260000000     0.649680000000     1.37604    
Zr92     Zr     0.730560000000     0.864110000000     0.797150000000     1.37172    
Zr93     Zr     0.734200000000     0.721210000000     0.650670000000     1.38373    
Zr94     Zr     0.731180000000     0.720710000000     0.797630000000     1.37633    
Zr95     Zr     0.802900000000     0.793660000000     0.725040000000     1.39641    
Zr96     Zr     0.658920000000     0.789410000000     0.720420000000     1.36721    


