data_structure

_audit_creation_method RASPA-1.0
_audit_creation_date 2023-6-4
_audit_author_name 'Poobodin Mano'

_cell_length_a    23.2131
_cell_length_b    25.9063
_cell_length_c    25.663
_cell_angle_alpha 82.733
_cell_angle_beta  96.3432
_cell_angle_gamma 119.442
_cell_volume      13310.9

_symmetry_cell_setting          triclinic
_symmetry_space_group_name_Hall 'P 1'
_symmetry_space_group_name_H-M  'P 1'
_symmetry_Int_Tables_number     1

_symmetry_equiv_pos_as_xyz 'x,y,z'

loop_
_atom_site_label
_atom_site_type_symbol
_atom_site_fract_x
_atom_site_fract_y
_atom_site_fract_z
_atom_site_charge
C1       C      0.279080000000     0.200820000000     0.990560000000     0.414447   
C2       C      0.981290000000     0.910460000000     0.878400000000     0.40927    
C3       C      0.109480000000     0.201990000000     0.938790000000     0.411365   
C4       C      0.156480000000     0.905380000000     0.950290000000     0.406591   
C5       C      0.063660000000     0.837190000000     0.118980000000     0.405567   
C6       C      0.011960000000     0.138670000000     0.101140000000     0.415783   
C7       C      0.877260000000     0.843520000000     0.059330000000     0.40949    
C8       C      0.170440000000     0.120690000000     0.185940000000     0.414538   
C9       C      0.109850000000     0.893150000000     0.450720000000     0.395623   
C10      C      0.806170000000     0.945970000000     0.489530000000     0.404782   
C11      C      0.084260000000     0.051930000000     0.343780000000     0.398538   
C12      C      0.869660000000     0.844550000000     0.619720000000     0.404204   
C13      C      0.986640000000     0.967510000000     0.705650000000     0.409576   
C14      C      0.218110000000     0.183040000000     0.444040000000     0.402497   
C15      C      0.967710000000     0.133790000000     0.603190000000     0.392276   
C16      C      0.268230000000     0.090100000000     0.559920000000     0.421813   
C17      C      0.142150000000     0.364290000000     0.991380000000     0.409703   
C18      C      0.930750000000     0.484200000000     0.144780000000     0.414958   
C19      C      0.942400000000     0.371100000000     0.919290000000     0.409585   
C20      C      0.158860000000     0.497820000000     0.213090000000     0.414594   
C21      C      0.254060000000     0.671060000000     0.140540000000     0.414037   
C22      C      0.060180000000     0.549530000000     0.845350000000     0.40988    
C23      C      0.057000000000     0.673410000000     0.069900000000     0.403465   
C24      C      0.270770000000     0.555860000000     0.919010000000     0.409476   
C25      C      0.040220000000     0.327790000000     0.602190000000     0.39876    
C26      C      0.859880000000     0.525610000000     0.492340000000     0.404482   
C27      C      0.955230000000     0.324600000000     0.485800000000     0.410496   
C28      C      0.966840000000     0.539630000000     0.686980000000     0.408264   
C29      C      0.145510000000     0.702400000000     0.610830000000     0.405595   
C30      C      0.163080000000     0.510690000000     0.396000000000     0.412775   
C31      C      0.057270000000     0.701700000000     0.472590000000     0.393285   
C32      C      0.250130000000     0.513310000000     0.573400000000     0.388733   
C33      C      0.355660000000     0.952590000000     0.975930000000     0.416096   
C34      C      0.673490000000     0.907020000000     0.965070000000     0.40876    
C35      C      0.408320000000     0.856500000000     0.105370000000     0.401985   
C36      C      0.646670000000     0.074810000000     0.840790000000     0.40566    
C37      C      0.763540000000     0.191070000000     0.930440000000     0.407796   
C38      C      0.533160000000     0.991700000000     0.198160000000     0.399192   
C39      C      0.815300000000     0.091740000000     0.060250000000     0.404715   
C40      C      0.509720000000     0.139610000000     0.089260000000     0.41178    
C41      C      0.571770000000     0.206800000000     0.431420000000     0.406232   
C42      C      0.319300000000     0.846940000000     0.538150000000     0.4069     
C43      C      0.464740000000     0.140170000000     0.589000000000     0.414298   
C44      C      0.450620000000     0.924350000000     0.357280000000     0.412896   
C45      C      0.607620000000     0.897580000000     0.452140000000     0.414061   
C46      C      0.604270000000     0.104660000000     0.684590000000     0.401611   
C47      C      0.492300000000     0.826000000000     0.603990000000     0.404222   
C48      C      0.757250000000     0.184230000000     0.524360000000     0.405131   
C49      C      0.525380000000     0.318040000000     0.120810000000     0.409498   
C50      C      0.449530000000     0.594720000000     0.971550000000     0.411223   
C51      C      0.469010000000     0.338220000000     0.954590000000     0.4169     
C52      C      0.508370000000     0.563410000000     0.180100000000     0.413335   
C53      C      0.716060000000     0.686630000000     0.137520000000     0.410909   
C54      C      0.679660000000     0.472720000000     0.905070000000     0.41329    
C55      C      0.666290000000     0.716130000000     0.968070000000     0.408201   
C56      C      0.745000000000     0.442040000000     0.103500000000     0.409174   
C57      C      0.607270000000     0.367520000000     0.483950000000     0.412457   
C58      C      0.396560000000     0.476570000000     0.659850000000     0.416152   
C59      C      0.396070000000     0.367560000000     0.430000000000     0.409361   
C60      C      0.622140000000     0.457410000000     0.722010000000     0.412429   
C61      C      0.719820000000     0.656540000000     0.658610000000     0.410115   
C62      C      0.509150000000     0.563780000000     0.367370000000     0.406665   
C63      C      0.510790000000     0.647210000000     0.614140000000     0.405304   
C64      C      0.717610000000     0.563050000000     0.417980000000     0.415208   
C65      C      0.682350000000     0.487690000000     0.808750000000     0.0755407  
C66      C      0.481430000000     0.542770000000     0.273380000000     0.0749002  
C67      C      0.472290000000     0.722570000000     0.601010000000     0.0714613  
C68      C      0.629960000000     0.318880000000     0.416220000000     0.0831881  
C69      C      0.662900000000     0.151790000000     0.765310000000     0.074745   
C70      C      0.442790000000     0.935810000000     0.259750000000     0.0759354  
C71      C      0.661670000000     0.807970000000     0.969800000000     0.0768361  
C72      C      0.542390000000     0.229780000000     0.133690000000     0.075499   
C73      C      0.879120000000     0.222630000000     0.524520000000     0.0759791  
C74      C      0.205560000000     0.804000000000     0.569370000000     0.0658515  
C75      C      0.829420000000     0.579360000000     0.415940000000     0.0752784  
C76      C      0.285880000000     0.468050000000     0.652670000000     0.0746418  
C77      C      0.017170000000     0.591620000000     0.767870000000     0.0772146  
C78      C      0.190290000000     0.535450000000     0.302230000000     0.0770753  
C79      C      0.826630000000     0.296800000000     0.893560000000     0.0760987  
C80      C      0.364240000000     0.758150000000     0.157050000000     0.0725392  
C81      C      0.816390000000     0.425560000000     0.176000000000     0.0834923  
C82      C      0.387450000000     0.613520000000     0.892410000000     0.082556   
C83      C      0.829910000000     0.745890000000     0.671210000000     0.0728435  
C84      C      0.279660000000     0.289910000000     0.410060000000     0.0720839  
C85      C      0.703800000000     0.887670000000     0.434070000000     0.0798506  
C86      C      0.371220000000     0.150560000000     0.613680000000     0.0830021  
C87      C      0.091440000000     0.798360000000     0.414770000000     0.0724706  
C88      C      0.990000000000     0.224150000000     0.650480000000     0.0716815  
C89      C      0.997550000000     0.909510000000     0.785510000000     0.0814365  
C90      C      0.174370000000     0.111690000000     0.283280000000     0.0773561  
C91      C      0.778310000000     0.792530000000     0.112840000000     0.0672918  
C92      C      0.359560000000     0.262090000000     0.921760000000     0.0805294  
C93      C      0.915850000000     0.148810000000     0.117440000000     0.0782328  
C94      C      0.250290000000     0.898370000000     0.921280000000     0.0792971  
C95      C      0.085680000000     0.751870000000     0.128240000000     0.07706    
C96      C      0.168500000000     0.312980000000     0.928940000000     0.0804058  
H1       H      0.107440000000     0.981950000000     0.918170000000     0.196545   
H2       H      0.009310000000     0.103130000000     0.000870000000     0.192757   
H3       H      0.993040000000     0.903810000000     0.112610000000     0.197904   
H4       H      0.238460000000     0.098620000000     0.092660000000     0.200192   
H5       H      0.937630000000     0.075950000000     0.906210000000     0.133715   
H6       H      0.873880000000     0.026300000000     0.993960000000     0.204105   
H7       H      0.948680000000     0.963540000000     0.176700000000     0.128806   
H8       H      0.064050000000     0.940880000000     0.234400000000     0.193967   
H9       H      0.232070000000     0.961410000000     0.147500000000     0.141967   
H10      H      0.305050000000     0.017440000000     0.058450000000     0.21187    
H11      H      0.249550000000     0.073250000000     0.889350000000     0.128516   
H12      H      0.131980000000     0.101490000000     0.837830000000     0.186536   
H13      H      0.140660000000     0.949430000000     0.244070000000     0.204141   
H14      H      0.337710000000     0.091410000000     0.055800000000     0.202366   
H15      H      0.056800000000     0.089340000000     0.813520000000     0.202129   
H16      H      0.825210000000     0.966300000000     0.032400000000     0.213246   
H17      H      0.885850000000     0.902380000000     0.505970000000     0.194865   
H18      H      0.081870000000     0.108280000000     0.420950000000     0.196943   
H19      H      0.053620000000     0.088390000000     0.629950000000     0.193702   
H20      H      0.137930000000     0.948710000000     0.556270000000     0.194945   
H21      H      0.965490000000     0.106650000000     0.374010000000     0.132639   
H22      H      0.077120000000     0.239950000000     0.457600000000     0.207178   
H23      H      0.193200000000     0.204710000000     0.588530000000     0.132846   
H24      H      0.181010000000     0.129340000000     0.681530000000     0.185808   
H25      H      0.121060000000     0.917330000000     0.666810000000     0.136949   
H26      H      0.077350000000     0.831130000000     0.579340000000     0.194846   
H27      H      0.898310000000     0.821730000000     0.455690000000     0.126248   
H28      H      0.911260000000     0.898350000000     0.368670000000     0.191716   
H29      H      0.175610000000     0.072640000000     0.723940000000     0.19754    
H30      H      0.010030000000     0.801590000000     0.614360000000     0.206209   
H31      H      0.865100000000     0.930780000000     0.346800000000     0.203904   
H32      H      0.002230000000     0.181110000000     0.448000000000     0.198562   
H33      H      0.024780000000     0.435090000000     0.141930000000     0.196216   
H34      H      0.985080000000     0.485590000000     0.932890000000     0.202818   
H35      H      0.167370000000     0.665670000000     0.044330000000     0.192621   
H36      H      0.220840000000     0.490430000000     0.011840000000     0.190051   
H37      H      0.825460000000     0.382440000000     0.015850000000     0.146518   
H38      H      0.922040000000     0.564910000000     0.944840000000     0.199846   
H39      H      0.158570000000     0.722620000000     0.957220000000     0.132644   
H40      H      0.294350000000     0.707750000000     0.944120000000     0.200645   
H41      H      0.331470000000     0.570590000000     0.064340000000     0.125722   
H42      H      0.268590000000     0.453010000000     0.112780000000     0.188467   
H43      H      0.026930000000     0.319200000000     0.110290000000     0.140088   
H44      H      0.905190000000     0.329200000000     0.118040000000     0.192174   
H45      H      0.293000000000     0.735720000000     0.999000000000     0.194624   
H46      H      0.218800000000     0.390360000000     0.148000000000     0.207291   
H47      H      0.903070000000     0.301490000000     0.061950000000     0.194854   
H48      H      0.965840000000     0.630400000000     0.910740000000     0.205833   
H49      H      0.902150000000     0.462500000000     0.591480000000     0.1998     
H50      H      0.028570000000     0.465980000000     0.419770000000     0.193634   
H51      H      0.137190000000     0.662570000000     0.522570000000     0.199902   
H52      H      0.137910000000     0.465730000000     0.627130000000     0.197393   
H53      H      0.906160000000     0.413710000000     0.383070000000     0.129259   
H54      H      0.995320000000     0.591390000000     0.358420000000     0.20696    
H55      H      0.221490000000     0.691530000000     0.443090000000     0.129995   
H56      H      0.308370000000     0.694500000000     0.576450000000     0.204261   
H57      H      0.180100000000     0.584210000000     0.702530000000     0.145781   
H58      H      0.096600000000     0.424990000000     0.722090000000     0.197554   
H59      H      0.876570000000     0.344990000000     0.634520000000     0.135777   
H60      H      0.786520000000     0.351960000000     0.502490000000     0.199856   
H61      H      0.310560000000     0.665360000000     0.638210000000     0.203847   
H62      H      0.030660000000     0.416160000000     0.750800000000     0.208674   
H63      H      0.801770000000     0.350700000000     0.440650000000     0.197959   
H64      H      0.047160000000     0.577720000000     0.329590000000     0.205456   
H65      H      0.575140000000     0.943540000000     0.918340000000     0.196772   
H66      H      0.540400000000     0.932960000000     0.125740000000     0.203092   
H67      H      0.736390000000     0.136320000000     0.038580000000     0.191741   
H68      H      0.484990000000     0.086160000000     0.979690000000     0.191427   
H69      H      0.588240000000     0.847270000000     0.111180000000     0.130099   
H70      H      0.699940000000     0.944410000000     0.152210000000     0.196249   
H71      H      0.730820000000     0.155400000000     0.147540000000     0.127018   
H72      H      0.742890000000     0.241800000000     0.063650000000     0.18278    
H73      H      0.579890000000     0.185850000000     0.909440000000     0.138962   
H74      H      0.445920000000     0.088290000000     0.879090000000     0.195965   
H75      H      0.440390000000     0.901650000000     0.874600000000     0.135531   
H76      H      0.477890000000     0.803560000000     0.953500000000     0.19889    
H77      H      0.696140000000     0.272690000000     0.038600000000     0.20543    
H78      H      0.455920000000     0.062170000000     0.826320000000     0.201657   
H79      H      0.420020000000     0.821590000000     0.963130000000     0.193121   
H80      H      0.707360000000     0.980240000000     0.204550000000     0.205942   
H81      H      0.389920000000     0.951780000000     0.442600000000     0.197039   
H82      H      0.496830000000     0.051680000000     0.625240000000     0.198975   
H83      H      0.596400000000     0.925200000000     0.554250000000     0.199243   
H84      H      0.645030000000     0.137110000000     0.448570000000     0.193148   
H85      H      0.356760000000     0.970030000000     0.641880000000     0.131548   
H86      H      0.451660000000     0.921340000000     0.702780000000     0.19519    
H87      H      0.684470000000     0.022480000000     0.670570000000     0.147364   
H88      H      0.728040000000     0.987310000000     0.572710000000     0.205648   
H89      H      0.684260000000     0.059660000000     0.386880000000     0.138054   
H90      H      0.626600000000     0.125550000000     0.346530000000     0.189777   
H91      H      0.406530000000     0.083280000000     0.386890000000     0.143695   
H92      H      0.294590000000     0.976010000000     0.464350000000     0.201432   
H93      H      0.786900000000     0.047760000000     0.541080000000     0.216271   
H94      H      0.558300000000     0.097090000000     0.306410000000     0.208998   
H95      H      0.336200000000     0.049780000000     0.467760000000     0.205926   
H96      H      0.520600000000     0.923330000000     0.732450000000     0.209483   
H97      H      0.444350000000     0.503370000000     0.070150000000     0.197501   
H98      H      0.570250000000     0.469430000000     0.923670000000     0.197876   
H99      H      0.715870000000     0.654230000000     0.042610000000     0.201253   
H100     H      0.628410000000     0.432160000000     0.137550000000     0.194989   
H101     H      0.484540000000     0.503630000000     0.866780000000     0.129911   
H102     H      0.607670000000     0.601210000000     0.851880000000     0.192769   
H103     H      0.803060000000     0.609780000000     0.960880000000     0.146763   
H104     H      0.849270000000     0.603290000000     0.086020000000     0.210492   
H105     H      0.690890000000     0.516120000000     0.219090000000     0.127705   
H106     H      0.563530000000     0.422970000000     0.237160000000     0.189062   
H107     H      0.381390000000     0.354800000000     0.114000000000     0.141641   
H108     H      0.342790000000     0.385140000000     0.019880000000     0.196788   
H109     H      0.838780000000     0.662660000000     0.086560000000     0.202066   
H110     H      0.481500000000     0.394260000000     0.239310000000     0.203984   
H111     H      0.330760000000     0.435880000000     0.980330000000     0.200291   
H112     H      0.689420000000     0.634350000000     0.845110000000     0.206098   
H113     H      0.490590000000     0.412470000000     0.654530000000     0.197547   
H114     H      0.437520000000     0.483790000000     0.452780000000     0.194946   
H115     H      0.625670000000     0.651140000000     0.574800000000     0.19988    
H116     H      0.677050000000     0.487210000000     0.509590000000     0.196047   
H117     H      0.310900000000     0.429460000000     0.513680000000     0.135855   
H118     H      0.375340000000     0.553130000000     0.491640000000     0.196305   
H119     H      0.619080000000     0.698560000000     0.447630000000     0.140483   
H120     H      0.746690000000     0.704040000000     0.461640000000     0.204238   
H121     H      0.789890000000     0.561900000000     0.570030000000     0.128225   
H122     H      0.734710000000     0.449540000000     0.606360000000     0.188866   
H123     H      0.487740000000     0.307230000000     0.594140000000     0.142429   
H124     H      0.367730000000     0.290850000000     0.584330000000     0.20113    
H125     H      0.746170000000     0.727870000000     0.519120000000     0.202255   
H126     H      0.689180000000     0.381530000000     0.635770000000     0.207891   
H127     H      0.378320000000     0.322260000000     0.640200000000     0.193576   
H128     H      0.411420000000     0.617130000000     0.453750000000     0.207759   
H129     H      0.658550000000     0.410030000000     0.771440000000     0.104747   
H130     H      0.686210000000     0.415110000000     0.860050000000     0.105916   
H131     H      0.733350000000     0.520100000000     0.797080000000     0.0232784  
H132     H      0.654860000000     0.512290000000     0.811480000000     0.0340793  
H133     H      0.477800000000     0.610870000000     0.311310000000     0.101744   
H134     H      0.496230000000     0.621170000000     0.221190000000     0.107416   
H135     H      0.514040000000     0.522010000000     0.279550000000     0.0408475  
H136     H      0.429010000000     0.506830000000     0.271510000000     0.0221909  
H137     H      0.497790000000     0.685170000000     0.674820000000     0.100508   
H138     H      0.494070000000     0.771660000000     0.669580000000     0.100801   
H139     H      0.497440000000     0.738190000000     0.563210000000     0.040145   
H140     H      0.418130000000     0.695990000000     0.592380000000     0.0236029  
H141     H      0.644010000000     0.308970000000     0.499700000000     0.11345    
H142     H      0.553760000000     0.255550000000     0.368010000000     0.0991956  
H143     H      0.623710000000     0.351750000000     0.387230000000     0.0211862  
H144     H      0.679660000000     0.324270000000     0.411450000000     0.00932964 
H145     H      0.560760000000     0.097990000000     0.751640000000     0.104289   
H146     H      0.717780000000     0.104600000000     0.785820000000     0.102465   
H147     H      0.706070000000     0.183020000000     0.741730000000     0.0204724  
H148     H      0.656480000000     0.178430000000     0.792650000000     0.0246009  
H149     H      0.416220000000     0.854250000000     0.310010000000     0.102454   
H150     H      0.548970000000     0.973060000000     0.277860000000     0.108866   
H151     H      0.413810000000     0.905310000000     0.228500000000     0.0257774  
H152     H      0.422890000000     0.966980000000     0.260320000000     0.0340288  
H153     H      0.741080000000     0.890070000000     0.933140000000     0.107773   
H154     H      0.719240000000     0.792190000000     0.918190000000     0.106434   
H155     H      0.665250000000     0.803310000000     0.013600000000     0.0387972  
H156     H      0.608400000000     0.788880000000     0.956310000000     0.0314461  
H157     H      0.477230000000     0.245710000000     0.174810000000     0.0994411  
H158     H      0.448100000000     0.148970000000     0.135380000000     0.101539   
H159     H      0.579900000000     0.254590000000     0.103730000000     0.0401524  
H160     H      0.569330000000     0.223830000000     0.170500000000     0.0170108  
H161     H      0.827110000000     0.269150000000     0.540240000000     0.108932   
H162     H      0.954700000000     0.248430000000     0.470710000000     0.0987125  
H163     H      0.904160000000     0.228750000000     0.564260000000     0.0276272  
H164     H      0.864900000000     0.176700000000     0.516100000000     0.0283196  
H165     H      0.145210000000     0.774440000000     0.634060000000     0.0942227  
H166     H      0.250170000000     0.757680000000     0.538470000000     0.0941304  
H167     H      0.168320000000     0.797440000000     0.536170000000     0.0171061  
H168     H      0.222830000000     0.849370000000     0.581180000000     0.0323234  
H169     H      0.753620000000     0.551290000000     0.352560000000     0.104755   
H170     H      0.776350000000     0.486910000000     0.443520000000     0.0982988  
H171     H      0.863890000000     0.583670000000     0.386790000000     0.0188792  
H172     H      0.852820000000     0.620970000000     0.436430000000     0.0436047  
H173     H      0.336850000000     0.558110000000     0.618020000000     0.103496   
H174     H      0.359780000000     0.500080000000     0.717720000000     0.102076   
H175     H      0.250610000000     0.466010000000     0.679900000000     0.0112865  
H176     H      0.263200000000     0.424230000000     0.635840000000     0.0405783  
H177     H      0.059080000000     0.532750000000     0.769130000000     0.11592    
H178     H      0.926470000000     0.576150000000     0.727300000000     0.0999216  
H179     H      0.000670000000     0.608400000000     0.797750000000     0.0265072  
H180     H      0.056610000000     0.631200000000     0.746500000000     0.0199869  
H181     H      0.210780000000     0.472820000000     0.271470000000     0.102299   
H182     H      0.212020000000     0.477710000000     0.360040000000     0.10122    
H183     H      0.236770000000     0.578580000000     0.298250000000     0.0268858  
H184     H      0.147390000000     0.544000000000     0.296330000000     0.0342043  
H185     H      0.843910000000     0.224410000000     0.884730000000     0.106188   
H186     H      0.913220000000     0.332450000000     0.848320000000     0.101505   
H187     H      0.796300000000     0.300260000000     0.858040000000     0.0210576  
H188     H      0.811760000000     0.310140000000     0.927080000000     0.0355025  
H189     H      0.328890000000     0.821360000000     0.152500000000     0.103111   
H190     H      0.281960000000     0.717130000000     0.207410000000     0.103197   
H191     H      0.383010000000     0.742410000000     0.127950000000     0.0460741  
H192     H      0.399130000000     0.768110000000     0.192340000000     0.020125   
H193     H      0.895700000000     0.507430000000     0.203700000000     0.104863   
H194     H      0.779260000000     0.381630000000     0.104120000000     0.10185    
H195     H      0.820970000000     0.385580000000     0.191440000000     0.0103396  
H196     H      0.786520000000     0.430740000000     0.203930000000     0.019443   
H197     H      0.420130000000     0.659190000000     0.963690000000     0.112533   
H198     H      0.308800000000     0.532400000000     0.862340000000     0.102906   
H199     H      0.385090000000     0.653910000000     0.874630000000     0.0136843  
H200     H      0.419470000000     0.607020000000     0.867690000000     0.0205809  
H201     H      0.793060000000     0.807730000000     0.670070000000     0.105878   
H202     H      0.751860000000     0.702400000000     0.725890000000     0.0988457  
H203     H      0.847030000000     0.730780000000     0.640390000000     0.0415661  
H204     H      0.867180000000     0.756350000000     0.704940000000     0.0182129  
H205     H      0.361700000000     0.328560000000     0.359230000000     0.0985371  
H206     H      0.298790000000     0.219210000000     0.398070000000     0.104627   
H207     H      0.267290000000     0.302370000000     0.445490000000     0.0441538  
H208     H      0.245860000000     0.292470000000     0.376890000000     0.0171207  
H209     H      0.712320000000     0.899350000000     0.517380000000     0.104244   
H210     H      0.599980000000     0.819770000000     0.429870000000     0.109569   
H211     H      0.721830000000     0.922400000000     0.400570000000     0.0328618  
H212     H      0.713290000000     0.851150000000     0.426910000000     0.0150143  
H213     H      0.476140000000     0.213790000000     0.622160000000     0.111227   
H214     H      0.360050000000     0.142180000000     0.529650000000     0.107707   
H215     H      0.353310000000     0.115250000000     0.646740000000     0.0311014  
H216     H      0.363530000000     0.187650000000     0.622270000000     0.0120815  
H217     H      0.042870000000     0.770040000000     0.487640000000     0.120131   
H218     H      0.178590000000     0.884510000000     0.413000000000     0.0919234  
H219     H      0.123100000000     0.786150000000     0.395420000000     0.025302   
H220     H      0.050060000000     0.794160000000     0.386200000000     0.0231042  
H221     H      0.900260000000     0.141580000000     0.642940000000     0.0973123  
H222     H      0.059060000000     0.261250000000     0.589510000000     0.125412   
H223     H      0.957540000000     0.237290000000     0.667470000000     0.0243367  
H224     H      0.023350000000     0.219710000000     0.683100000000     0.0183153  
H225     H      0.919910000000     0.933500000000     0.764870000000     0.113961   
H226     H      0.940000000000     0.834140000000     0.838840000000     0.103389   
H227     H      0.995280000000     0.874850000000     0.762490000000     0.0178449  
H228     H      0.050850000000     0.941280000000     0.794040000000     0.0228007  
H229     H      0.068360000000     0.077420000000     0.265810000000     0.10796    
H230     H      0.196610000000     0.191070000000     0.231020000000     0.101509   
H231     H      0.201960000000     0.143270000000     0.314020000000     0.0233052  
H232     H      0.195770000000     0.081380000000     0.284510000000     0.0331708  
H233     H      0.813000000000     0.752720000000     0.062490000000     0.0928844  
H234     H      0.798050000000     0.745060000000     0.180390000000     0.102301   
H235     H      0.802550000000     0.833250000000     0.134550000000     0.0315211  
H236     H      0.733510000000     0.791210000000     0.091170000000     0.0357713  
H237     H      0.448270000000     0.254140000000     0.937900000000     0.109092   
H238     H      0.331980000000     0.292620000000     0.984440000000     0.107019   
H239     H      0.353170000000     0.294510000000     0.892300000000     0.0255774  
H240     H      0.339390000000     0.220020000000     0.902470000000     0.0254762  
H241     H      0.910120000000     0.136010000000     0.034560000000     0.0981014  
H242     H      0.018930000000     0.217830000000     0.118740000000     0.103826   
H243     H      0.905900000000     0.185230000000     0.124090000000     0.0135045  
H244     H      0.897160000000     0.113930000000     0.150770000000     0.0374261  
H245     H      0.263100000000     0.906680000000     0.005090000000     0.106324   
H246     H      0.147040000000     0.829440000000     0.922120000000     0.103894   
H247     H      0.265970000000     0.935540000000     0.889770000000     0.0315302  
H248     H      0.258930000000     0.863170000000     0.909090000000     0.0173372  
H249     H      0.032040000000     0.740270000000     0.051770000000     0.119439   
H250     H      0.053640000000     0.782220000000     0.186090000000     0.0982187  
H251     H      0.085250000000     0.719960000000     0.161800000000     0.0292654  
H252     H      0.138420000000     0.782450000000     0.119600000000     0.0168573  
H253     H      0.094660000000     0.253090000000     0.875480000000     0.0996755  
H254     H      0.169000000000     0.299570000000     0.013660000000     0.115189   
H255     H      0.218390000000     0.316700000000     0.929720000000     0.0201217  
H256     H      0.168500000000     0.347890000000     0.898900000000     0.0257939  
N1       N      0.686060000000     0.455480000000     0.859500000000    -0.227368   
N2       N      0.648770000000     0.445690000000     0.768770000000    -0.225748   
N3       N      0.495600000000     0.580290000000     0.223480000000    -0.224574   
N4       N      0.492110000000     0.577960000000     0.317380000000    -0.224298   
N5       N      0.486310000000     0.774120000000     0.628610000000    -0.224604   
N6       N      0.495860000000     0.685190000000     0.633890000000    -0.224023   
N7       N      0.579260000000     0.258640000000     0.404760000000    -0.222749   
N8       N      0.626580000000     0.329890000000     0.469650000000    -0.224414   
N9       N      0.676140000000     0.106200000000     0.795570000000    -0.220685   
N10      N      0.603430000000     0.124400000000     0.730770000000    -0.220616   
N11      N      0.513180000000     0.969570000000     0.247830000000    -0.221511   
N12      N      0.433940000000     0.899930000000     0.310440000000    -0.225775   
N13      N      0.688030000000     0.773890000000     0.949580000000    -0.224465   
N14      N      0.696880000000     0.871610000000     0.952310000000    -0.227499   
N15      N      0.493290000000     0.171100000000     0.117240000000    -0.22456    
N16      N      0.509640000000     0.263080000000     0.144190000000    -0.225649   
N17      N      0.927440000000     0.264610000000     0.486210000000    -0.221471   
N18      N      0.820340000000     0.230470000000     0.525920000000    -0.219581   
N19      N      0.260330000000     0.798390000000     0.550710000000    -0.217258   
N20      N      0.172590000000     0.761540000000     0.614320000000    -0.219849   
N21      N      0.816320000000     0.527730000000     0.453570000000    -0.226164   
N22      N      0.766370000000     0.569890000000     0.388730000000    -0.226439   
N23      N      0.348620000000     0.480120000000     0.682360000000    -0.225877   
N24      N      0.297610000000     0.515870000000     0.610790000000    -0.222911   
N25      N      0.960420000000     0.560200000000     0.730900000000    -0.222533   
N26      N      0.044710000000     0.553730000000     0.792960000000    -0.223359   
N27      N      0.191100000000     0.505870000000     0.354660000000    -0.226997   
N28      N      0.185880000000     0.497590000000     0.262640000000    -0.225873   
N29      N      0.897010000000     0.335460000000     0.883700000000    -0.225523   
N30      N      0.814030000000     0.235590000000     0.903270000000    -0.225006   
N31      N      0.298090000000     0.712600000000     0.172630000000    -0.224942   
N32      N      0.361930000000     0.812270000000     0.136060000000    -0.224343   
N33      N      0.782010000000     0.415950000000     0.123600000000    -0.218937   
N34      N      0.882720000000     0.477730000000     0.174950000000    -0.223237   
N35      N      0.320280000000     0.562200000000     0.890690000000    -0.223683   
N36      N      0.417360000000     0.623500000000     0.946410000000    -0.220374   
N37      N      0.765280000000     0.699140000000     0.689350000000    -0.224185   
N38      N      0.825760000000     0.799690000000     0.651900000000    -0.222934   
N39      N      0.269050000000     0.229090000000     0.418240000000    -0.222294   
N40      N      0.348480000000     0.330570000000     0.396290000000    -0.224666   
N41      N      0.632150000000     0.864150000000     0.437080000000    -0.226688   
N42      N      0.739250000000     0.912880000000     0.483530000000    -0.218794   
N43      N      0.334420000000     0.127050000000     0.564270000000    -0.221842   
N44      N      0.442130000000     0.172390000000     0.609110000000    -0.229741   
N45      N      0.131390000000     0.861070000000     0.427840000000    -0.221441   
N46      N      0.064120000000     0.757410000000     0.461500000000    -0.220695   
N47      N      0.030330000000     0.270810000000     0.610950000000    -0.220633   
N48      N      0.947890000000     0.165350000000     0.628890000000    -0.220074   
N49      N      0.964780000000     0.880660000000     0.834690000000    -0.2264     
N50      N      0.965420000000     0.940370000000     0.753920000000    -0.223098   
N51      N      0.183270000000     0.146110000000     0.231910000000    -0.22668    
N52      N      0.103810000000     0.077060000000     0.294590000000    -0.221934   
N53      N      0.760910000000     0.741400000000     0.151610000000    -0.225186   
N54      N      0.822480000000     0.793060000000     0.075270000000    -0.223429   
N55      N      0.324250000000     0.254290000000     0.968670000000    -0.223668   
N56      N      0.429890000000     0.284000000000     0.936200000000    -0.224964   
N57      N      0.987430000000     0.172420000000     0.115320000000    -0.227715   
N58      N      0.882000000000     0.123750000000     0.067610000000    -0.221467   
N59      N      0.179390000000     0.873880000000     0.929050000000    -0.225899   
N60      N      0.288790000000     0.919800000000     0.970580000000    -0.222184   
N61      N      0.057010000000     0.785870000000     0.145320000000    -0.223744   
N62      N      0.050120000000     0.719830000000     0.081680000000    -0.222936   
N63      N      0.157330000000     0.322270000000     0.981320000000    -0.223587   
N64      N      0.118340000000     0.254280000000     0.912790000000    -0.223136   
O1       O      0.268740000000     0.153270000000     0.971240000000    -0.376029   
O2       O      0.246520000000     0.200950000000     0.027880000000    -0.385992   
O3       O      0.005070000000     0.967360000000     0.872510000000    -0.376039   
O4       O      0.977010000000     0.880380000000     0.923070000000    -0.373767   
O5       O      0.075460000000     0.154530000000     0.914270000000    -0.386526   
O6       O      0.135630000000     0.202820000000     0.985780000000    -0.371207   
O7       O      0.197760000000     0.960250000000     0.957330000000    -0.378095   
O8       O      0.096120000000     0.878150000000     0.964030000000    -0.371724   
O9       O      0.276750000000     0.070370000000     0.920990000000    -0.332657   
O10      O      0.301910000000     0.053010000000     0.046990000000    -0.531014   
O11      O      0.085930000000     0.087930000000     0.842970000000    -0.518704   
O12      O      0.935340000000     0.038460000000     0.898530000000    -0.348683   
O13      O      0.149600000000     0.101080000000     0.971450000000    -0.494203   
O14      O      0.100870000000     0.993910000000     0.950130000000    -0.629407   
O15      O      0.082560000000     0.881690000000     0.146440000000    -0.390206   
O16      O      0.050140000000     0.838540000000     0.069020000000    -0.372626   
O17      O      0.971480000000     0.082910000000     0.097910000000    -0.379251   
O18      O      0.072320000000     0.165000000000     0.087930000000    -0.378673   
O19      O      0.884470000000     0.892510000000     0.072460000000    -0.393186   
O20      O      0.920300000000     0.839190000000     0.034770000000    -0.373491   
O21      O      0.151420000000     0.064780000000     0.188610000000    -0.374067   
O22      O      0.176130000000     0.153470000000     0.142540000000    -0.376275   
O23      O      0.106320000000     0.952200000000     0.220940000000    -0.512215   
O24      O      0.236810000000     0.000620000000     0.152490000000    -0.359275   
O25      O      0.916020000000     0.969030000000     0.151750000000    -0.33504    
O26      O      0.868930000000     0.995970000000     0.021940000000    -0.524106   
O27      O      0.019560000000     0.937860000000     0.089250000000    -0.636248   
O28      O      0.070570000000     0.045550000000     0.110970000000    -0.501047   
O29      O      0.141150000000     0.961380000000     0.050380000000    -0.498349   
O30      O      0.029460000000     0.077880000000     0.008530000000    -0.636111   
O31      O      0.195940000000     0.074360000000     0.075200000000    -0.63059    
O32      O      0.975460000000     0.965930000000     0.986150000000    -0.490344   
O33      O      0.053570000000     0.865510000000     0.472090000000    -0.376324   
O34      O      0.147900000000     0.950140000000     0.450080000000    -0.382941   
O35      O      0.840760000000     0.957540000000     0.449380000000    -0.377264   
O36      O      0.831190000000     0.959650000000     0.536420000000    -0.381901   
O37      O      0.024140000000     0.035610000000     0.354210000000    -0.38062    
O38      O      0.128370000000     0.050610000000     0.378150000000    -0.375887   
O39      O      0.910530000000     0.835810000000     0.596510000000    -0.369125   
O40      O      0.868270000000     0.893930000000     0.615420000000    -0.367576   
O41      O      0.908170000000     0.804660000000     0.490020000000    -0.339532   
O42      O      0.035860000000     0.828650000000     0.586040000000    -0.530318   
O43      O      0.899850000000     0.929280000000     0.370320000000    -0.523509   
O44      O      0.923640000000     0.070790000000     0.384020000000    -0.341168   
O45      O      0.024260000000     0.955150000000     0.453790000000    -0.498257   
O46      O      0.930000000000     0.935500000000     0.509530000000    -0.627496   
O47      O      0.043030000000     0.975690000000     0.692920000000    -0.377683   
O48      O      0.947180000000     0.979860000000     0.674230000000    -0.373103   
O49      O      0.179320000000     0.193170000000     0.468730000000    -0.370442   
O50      O      0.211650000000     0.131300000000     0.441370000000    -0.368183   
O51      O      0.023250000000     0.161460000000     0.580760000000    -0.37601    
O52      O      0.928950000000     0.076900000000     0.602900000000    -0.376921   
O53      O      0.233850000000     0.078670000000     0.600150000000    -0.371691   
O54      O      0.243430000000     0.071550000000     0.514340000000    -0.378887   
O55      O      0.168070000000     0.087660000000     0.688910000000    -0.52766    
O56      O      0.160130000000     0.957600000000     0.664500000000    -0.349213   
O57      O      0.164660000000     0.219780000000     0.568660000000    -0.334996   
O58      O      0.046680000000     0.197990000000     0.464040000000    -0.533133   
O59      O      0.051430000000     0.069070000000     0.599420000000    -0.628282   
O60      O      0.145310000000     0.088070000000     0.543680000000    -0.496785   
O61      O      0.007820000000     0.946650000000     0.601360000000    -0.490347   
O62      O      0.067120000000     0.079920000000     0.451280000000    -0.629737   
O63      O      0.107900000000     0.964910000000     0.549900000000    -0.629729   
O64      O      0.969240000000     0.061190000000     0.502410000000    -0.494157   
O65      O      0.144110000000     0.372740000000     0.040040000000    -0.387503   
O66      O      0.128570000000     0.394000000000     0.952580000000    -0.375576   
O67      O      0.913850000000     0.448940000000     0.108160000000    -0.382534   
O68      O      0.990380000000     0.525610000000     0.154580000000    -0.382323   
O69      O      0.921410000000     0.376110000000     0.961750000000    -0.387603   
O70      O      0.003500000000     0.399740000000     0.907220000000    -0.374988   
O71      O      0.164330000000     0.465570000000     0.181950000000    -0.379639   
O72      O      0.131160000000     0.530570000000     0.199720000000    -0.373181   
O73      O      0.056460000000     0.343760000000     0.138580000000    -0.357775   
O74      O      0.224920000000     0.424490000000     0.124200000000    -0.516951   
O75      O      0.914360000000     0.335210000000     0.081290000000    -0.537549   
O76      O      0.857580000000     0.424670000000     0.006600000000    -0.343358   
O77      O      0.049420000000     0.412400000000     0.022370000000    -0.501659   
O78      O      0.045000000000     0.456710000000     0.109570000000    -0.633892   
O79      O      0.275130000000     0.664830000000     0.098680000000    -0.378956   
O80      O      0.193810000000     0.640380000000     0.154070000000    -0.372446   
O81      O      0.050190000000     0.580320000000     0.875560000000    -0.375798   
O82      O      0.083220000000     0.513890000000     0.861600000000    -0.378976   
O83      O      0.046250000000     0.660830000000     0.021520000000    -0.380257   
O84      O      0.076510000000     0.646430000000     0.107290000000    -0.376148   
O85      O      0.286280000000     0.591720000000     0.954720000000    -0.387073   
O86      O      0.211600000000     0.513280000000     0.909420000000    -0.376284   
O87      O      0.283690000000     0.701960000000     0.980480000000    -0.528404   
O88      O      0.339590000000     0.612090000000     0.058500000000    -0.327551   
O89      O      0.134630000000     0.697700000000     0.927630000000    -0.348285   
O90      O      0.964240000000     0.597840000000     0.934690000000    -0.523284   
O91      O      0.148080000000     0.624040000000     0.038840000000    -0.634664   
O92      O      0.153020000000     0.580520000000     0.953180000000    -0.493229   
O93      O      0.181160000000     0.541680000000     0.100000000000    -0.496605   
O94      O      0.017480000000     0.495290000000     0.962170000000    -0.631394   
O95      O      0.186770000000     0.499560000000     0.018350000000    -0.636496   
O96      O      0.012020000000     0.537900000000     0.044780000000    -0.492662   
O97      O      0.010900000000     0.346850000000     0.629180000000    -0.357044   
O98      O      0.078120000000     0.359250000000     0.564810000000    -0.36786    
O99      O      0.852720000000     0.474590000000     0.509080000000    -0.401339   
O100     O      0.911060000000     0.573430000000     0.506570000000    -0.353701   
O101     O      0.920030000000     0.345860000000     0.498970000000    -0.373449   
O102     O      0.017170000000     0.357190000000     0.476460000000    -0.370705   
O103     O      0.991850000000     0.504250000000     0.691590000000    -0.365789   
O104     O      0.950700000000     0.559400000000     0.642600000000    -0.391992   
O105     O      0.898210000000     0.370420000000     0.664130000000    -0.35608    
O106     O      0.054280000000     0.424110000000     0.719470000000    -0.528616   
O107     O      0.816570000000     0.367400000000     0.474300000000    -0.518373   
O108     O      0.910060000000     0.450610000000     0.394130000000    -0.359178   
O109     O      0.992110000000     0.412370000000     0.549870000000    -0.492412   
O110     O      0.943470000000     0.475360000000     0.575680000000    -0.61802    
O111     O      0.184850000000     0.682090000000     0.605460000000    -0.385284   
O112     O      0.081730000000     0.671580000000     0.607080000000    -0.370653   
O113     O      0.144350000000     0.550500000000     0.391630000000    -0.380386   
O114     O      0.155370000000     0.473640000000     0.436490000000    -0.389811   
O115     O      0.081400000000     0.680590000000     0.442670000000    -0.364539   
O116     O      0.028290000000     0.673910000000     0.515040000000    -0.366381   
O117     O      0.249760000000     0.561630000000     0.556780000000    -0.3744     
O118     O      0.201140000000     0.463030000000     0.561600000000    -0.366083   
O119     O      0.286960000000     0.664260000000     0.604540000000    -0.518387   
O120     O      0.196730000000     0.563850000000     0.683260000000    -0.367008   
O121     O      0.194930000000     0.673210000000     0.411050000000    -0.337121   
O122     O      0.033540000000     0.585470000000     0.360650000000    -0.525853   
O123     O      0.113530000000     0.619990000000     0.528930000000    -0.638408   
O124     O      0.158710000000     0.556370000000     0.504150000000    -0.475505   
O125     O      0.069330000000     0.548550000000     0.624950000000    -0.488544   
O126     O      0.034280000000     0.482210000000     0.453000000000    -0.619748   
O127     O      0.114280000000     0.481270000000     0.602740000000    -0.623059   
O128     O      0.988360000000     0.548980000000     0.477370000000    -0.492215   
O129     O      0.390750000000     0.962840000000     0.936270000000    -0.373639   
O130     O      0.379870000000     0.968730000000     0.022170000000    -0.384878   
O131     O      0.619940000000     0.881460000000     0.989970000000    -0.389891   
O132     O      0.705430000000     0.963310000000     0.952020000000    -0.38233    
O133     O      0.449650000000     0.846630000000     0.084250000000    -0.375974   
O134     O      0.409380000000     0.906820000000     0.100910000000    -0.370285   
O135     O      0.591410000000     0.070860000000     0.851690000000    -0.358832   
O136     O      0.678220000000     0.053330000000     0.872250000000    -0.370646   
O137     O      0.469990000000     0.939770000000     0.855160000000    -0.359252   
O138     O      0.460690000000     0.064800000000     0.863930000000    -0.52667    
O139     O      0.464650000000     0.827640000000     0.969530000000    -0.528102   
O140     O      0.556960000000     0.825800000000     0.082130000000    -0.328289   
O141     O      0.476790000000     0.947480000000     0.997540000000    -0.498291   
O142     O      0.574730000000     0.964890000000     0.946430000000    -0.625897   
O143     O      0.723220000000     0.202080000000     0.952060000000    -0.371501   
O144     O      0.759530000000     0.139780000000     0.932500000000    -0.376273   
O145     O      0.594230000000     0.009540000000     0.189640000000    -0.377472   
O146     O      0.489130000000     0.989300000000     0.161850000000    -0.368992   
O147     O      0.779630000000     0.081520000000     0.099300000000    -0.383383   
O148     O      0.791790000000     0.077600000000     0.013220000000    -0.38263    
O149     O      0.565170000000     0.167150000000     0.066500000000    -0.374109   
O150     O      0.469910000000     0.083510000000     0.088810000000    -0.390431   
O151     O      0.703660000000     0.238810000000     0.043760000000    -0.522312   
O152     O      0.583450000000     0.201510000000     0.943600000000    -0.351601   
O153     O      0.717990000000     0.118580000000     0.171170000000    -0.338412   
O154     O      0.696530000000     0.974990000000     0.167460000000    -0.527089   
O155     O      0.692390000000     0.103120000000     0.034490000000    -0.631026   
O156     O      0.595150000000     0.084260000000     0.085890000000    -0.494449   
O157     O      0.617520000000     0.088990000000     0.939900000000    -0.493143   
O158     O      0.554740000000     0.959850000000     0.094500000000    -0.640445   
O159     O      0.515290000000     0.070390000000     0.987850000000    -0.625655   
O160     O      0.652800000000     0.978040000000     0.046320000000    -0.499222   
O161     O      0.538190000000     0.159990000000     0.406410000000    -0.387642   
O162     O      0.597650000000     0.206700000000     0.478880000000    -0.36725    
O163     O      0.329760000000     0.897150000000     0.551050000000    -0.384184   
O164     O      0.361330000000     0.840270000000     0.514310000000    -0.374955   
O165     O      0.422060000000     0.086850000000     0.578270000000    -0.381319   
O166     O      0.526850000000     0.165060000000     0.581020000000    -0.375665   
O167     O      0.474610000000     0.980960000000     0.356000000000    -0.37793    
O168     O      0.442510000000     0.889680000000     0.399910000000    -0.377566   
O169     O      0.414120000000     0.055190000000     0.369700000000    -0.34997    
O170     O      0.579030000000     0.102130000000     0.341550000000    -0.526018   
O171     O      0.331720000000     0.010870000000     0.478240000000    -0.534621   
O172     O      0.334370000000     0.977380000000     0.608940000000    -0.325877   
O173     O      0.490300000000     0.085130000000     0.493200000000    -0.497842   
O174     O      0.430470000000     0.971900000000     0.463940000000    -0.633012   
O175     O      0.649380000000     0.951900000000     0.460160000000    -0.379294   
O176     O      0.545380000000     0.872350000000     0.460240000000    -0.3698     
O177     O      0.580080000000     0.048260000000     0.684650000000    -0.391536   
O178     O      0.618470000000     0.141270000000     0.642510000000    -0.362253   
O179     O      0.515290000000     0.870370000000     0.632360000000    -0.378173   
O180     O      0.477020000000     0.828650000000     0.554230000000    -0.371991   
O181     O      0.747770000000     0.135480000000     0.508410000000    -0.383212   
O182     O      0.710750000000     0.191620000000     0.539740000000    -0.382466   
O183     O      0.740600000000     0.020830000000     0.546670000000    -0.526897   
O184     O      0.718610000000     0.073160000000     0.416100000000    -0.339155   
O185     O      0.656350000000     0.980960000000     0.661270000000    -0.358371   
O186     O      0.497490000000     0.931340000000     0.701550000000    -0.51591    
O187     O      0.578860000000     0.952290000000     0.544860000000    -0.633035   
O188     O      0.636400000000     0.062560000000     0.574400000000    -0.49863    
O189     O      0.557160000000     0.992690000000     0.442430000000    -0.498481   
O190     O      0.509160000000     0.041630000000     0.594950000000    -0.634707   
O191     O      0.613100000000     0.102140000000     0.468280000000    -0.635362   
O192     O      0.453940000000     0.934570000000     0.569600000000    -0.496217   
O193     O      0.502290000000     0.347280000000     0.140090000000    -0.386359   
O194     O      0.563570000000     0.338200000000     0.082030000000    -0.373992   
O195     O      0.442970000000     0.548960000000     0.951450000000    -0.379904   
O196     O      0.486770000000     0.616370000000     0.013100000000    -0.371489   
O197     O      0.445020000000     0.374070000000     0.952750000000    -0.375527   
O198     O      0.526630000000     0.349300000000     0.974840000000    -0.371909   
O199     O      0.504090000000     0.511640000000     0.183100000000    -0.376644   
O200     O      0.526370000000     0.600930000000     0.139270000000    -0.377476   
O201     O      0.394280000000     0.392750000000     0.128800000000    -0.364976   
O202     O      0.521160000000     0.414910000000     0.219810000000    -0.517957   
O203     O      0.360020000000     0.421040000000     0.996440000000    -0.531209   
O204     O      0.445930000000     0.469200000000     0.883280000000    -0.340423   
O205     O      0.503850000000     0.415680000000     0.043450000000    -0.498275   
O206     O      0.484440000000     0.503960000000     0.062290000000    -0.634097   
O207     O      0.731570000000     0.645170000000     0.149720000000    -0.37975    
O208     O      0.665960000000     0.681610000000     0.107040000000    -0.371433   
O209     O      0.686080000000     0.524920000000     0.903560000000    -0.398335   
O210     O      0.660280000000     0.433830000000     0.944980000000    -0.375104   
O211     O      0.686730000000     0.686050000000     0.946840000000    -0.376487   
O212     O      0.626650000000     0.695020000000     0.005980000000    -0.369604   
O213     O      0.751410000000     0.486570000000     0.125760000000    -0.38176    
O214     O      0.703400000000     0.418790000000     0.064560000000    -0.376938   
O215     O      0.821190000000     0.620040000000     0.090560000000    -0.52882    
O216     O      0.733870000000     0.544830000000     0.204050000000    -0.332465   
O217     O      0.788310000000     0.640090000000     0.954440000000    -0.35085    
O218     O      0.651880000000     0.612350000000     0.866840000000    -0.518608   
O219     O      0.680690000000     0.613560000000     0.043130000000    -0.635871   
O220     O      0.699480000000     0.527460000000     0.024020000000    -0.500461   
O221     O      0.603840000000     0.545530000000     0.128700000000    -0.494592   
O222     O      0.578430000000     0.485060000000     0.957500000000    -0.634216   
O223     O      0.618300000000     0.457200000000     0.111360000000    -0.637019   
O224     O      0.564060000000     0.572140000000     0.974870000000    -0.500085   
O225     O      0.610310000000     0.370930000000     0.533480000000    -0.394653   
O226     O      0.589450000000     0.398330000000     0.448710000000    -0.370272   
O227     O      0.380460000000     0.453010000000     0.615810000000    -0.374165   
O228     O      0.455900000000     0.500390000000     0.681470000000    -0.377988   
O229     O      0.378640000000     0.370160000000     0.475020000000    -0.382408   
O230     O      0.455530000000     0.398820000000     0.414400000000    -0.377442   
O231     O      0.617510000000     0.426270000000     0.685440000000    -0.390773   
O232     O      0.605130000000     0.498750000000     0.716100000000    -0.370857   
O233     O      0.518220000000     0.324030000000     0.625040000000    -0.353224   
O234     O      0.692160000000     0.417300000000     0.616640000000    -0.516049   
O235     O      0.383070000000     0.326020000000     0.602770000000    -0.531236   
O236     O      0.310160000000     0.393850000000     0.533660000000    -0.319456   
O237     O      0.508380000000     0.404940000000     0.525980000000    -0.506597   
O238     O      0.508990000000     0.438100000000     0.623160000000    -0.635355   
O239     O      0.737510000000     0.653240000000     0.613940000000    -0.380004   
O240     O      0.661590000000     0.622340000000     0.675870000000    -0.375616   
O241     O      0.506920000000     0.592660000000     0.403720000000    -0.387132   
O242     O      0.525130000000     0.522090000000     0.375660000000    -0.372508   
O243     O      0.503860000000     0.643750000000     0.563910000000    -0.371997   
O244     O      0.531270000000     0.617090000000     0.647220000000    -0.371853   
O245     O      0.735950000000     0.588320000000     0.461270000000    -0.387189   
O246     O      0.657270000000     0.526110000000     0.404260000000    -0.378978   
O247     O      0.737210000000     0.695770000000     0.498420000000    -0.527889   
O248     O      0.798580000000     0.603540000000     0.563480000000    -0.324021   
O249     O      0.584960000000     0.696510000000     0.469070000000    -0.352548   
O250     O      0.414670000000     0.586090000000     0.476880000000    -0.526021   
O251     O      0.606860000000     0.610700000000     0.565690000000    -0.633311   
O252     O      0.606070000000     0.577990000000     0.470900000000    -0.49931    
O253     O      0.645600000000     0.526070000000     0.611910000000    -0.504307   
O254     O      0.471830000000     0.490930000000     0.480340000000    -0.630176   
O255     O      0.643210000000     0.494180000000     0.520670000000    -0.638553   
O256     O      0.475870000000     0.522910000000     0.572250000000    -0.490679   
Zr1      Zr     0.206410000000     0.046120000000     0.993830000000     1.37718    
Zr2      Zr     0.043340000000     0.048790000000     0.928970000000     1.3797     
Zr3      Zr     0.126720000000     0.989240000000     0.130100000000     1.37793    
Zr4      Zr     0.965640000000     0.995820000000     0.067020000000     1.39737    
Zr5      Zr     0.136150000000     0.128070000000     0.052590000000     1.37271    
Zr6      Zr     0.033120000000     0.910410000000     0.008100000000     1.36772    
Zr7      Zr     0.996910000000     0.889850000000     0.532190000000     1.36972    
Zr8      Zr     0.958460000000     0.002950000000     0.432810000000     1.36597    
Zr9      Zr     0.116940000000     0.021230000000     0.619870000000     1.37843    
Zr10     Zr     0.080670000000     0.135950000000     0.522080000000     1.37028    
Zr11     Zr     0.133240000000     0.032230000000     0.472800000000     1.37295    
Zr12     Zr     0.941200000000     0.993550000000     0.579190000000     1.36847    
Zr13     Zr     0.131140000000     0.438020000000     0.092540000000     1.38372    
Zr14     Zr     0.965080000000     0.434260000000     0.037830000000     1.37849    
Zr15     Zr     0.233160000000     0.603310000000     0.024800000000     1.38841    
Zr16     Zr     0.065520000000     0.598510000000     0.968940000000     1.38394    
Zr17     Zr     0.104760000000     0.475880000000     0.947820000000     1.37551    
Zr18     Zr     0.095140000000     0.561610000000     0.114590000000     1.37554    
Zr19     Zr     0.007950000000     0.442460000000     0.634980000000     1.36636    
Zr20     Zr     0.929720000000     0.443770000000     0.489380000000     1.37129    
Zr21     Zr     0.174340000000     0.586800000000     0.590760000000     1.37197    
Zr22     Zr     0.093920000000     0.588750000000     0.443940000000     1.3722     
Zr23     Zr     0.097170000000     0.450090000000     0.515620000000     1.37044    
Zr24     Zr     0.007470000000     0.581770000000     0.562960000000     1.37414    
Zr25     Zr     0.509680000000     0.012910000000     0.919770000000     1.36124    
Zr26     Zr     0.542630000000     0.902250000000     0.026090000000     1.37738    
Zr27     Zr     0.625160000000     0.147220000000     0.006300000000     1.37179    
Zr28     Zr     0.661880000000     0.038690000000     0.112840000000     1.37554    
Zr29     Zr     0.487560000000     0.004820000000     0.066550000000     1.37856    
Zr30     Zr     0.683310000000     0.042570000000     0.967820000000     1.37583    
Zr31     Zr     0.512010000000     0.056830000000     0.416700000000     1.38905    
Zr32     Zr     0.411230000000     0.000590000000     0.541280000000     1.38971    
Zr33     Zr     0.656600000000     0.037010000000     0.495340000000     1.39614    
Zr34     Zr     0.554300000000     0.977260000000     0.621550000000     1.39017    
Zr35     Zr     0.591030000000     0.127480000000     0.547190000000     1.35736    
Zr36     Zr     0.477440000000     0.908130000000     0.492250000000     1.36638    
Zr37     Zr     0.514660000000     0.447160000000     0.128110000000     1.37875    
Zr38     Zr     0.475530000000     0.472910000000     0.977260000000     1.38179    
Zr39     Zr     0.706890000000     0.555510000000     0.110320000000     1.38686    
Zr40     Zr     0.668220000000     0.583950000000     0.958060000000     1.39125    
Zr41     Zr     0.608960000000     0.429030000000     0.024680000000     1.37781    
Zr42     Zr     0.576240000000     0.602410000000     0.060500000000     1.37943    
Zr43     Zr     0.593290000000     0.425340000000     0.592920000000     1.40397    
Zr44     Zr     0.426390000000     0.422300000000     0.554160000000     1.38484    
Zr45     Zr     0.690240000000     0.595090000000     0.538290000000     1.39854    
Zr46     Zr     0.521120000000     0.591750000000     0.499270000000     1.39101    
Zr47     Zr     0.557470000000     0.475810000000     0.453500000000     1.36748    
Zr48     Zr     0.561070000000     0.540640000000     0.639880000000     1.36367    


