data_structure

_audit_creation_method RASPA-1.0
_audit_creation_date 2023-5-19
_audit_author_name 'Poobodin Mano'

_cell_length_a    28.4312
_cell_length_b    31.4494
_cell_length_c    26.124
_cell_angle_alpha 89.9985
_cell_angle_beta  89.9985
_cell_angle_gamma 89.9434
_cell_volume      23358.6

_symmetry_cell_setting          triclinic
_symmetry_space_group_name_Hall 'P 1'
_symmetry_space_group_name_H-M  'P 1'
_symmetry_Int_Tables_number     1

_symmetry_equiv_pos_as_xyz 'x,y,z'

loop_
_atom_site_label
_atom_site_type_symbol
_atom_site_fract_x
_atom_site_fract_y
_atom_site_fract_z
_atom_site_charge
C1       C      0.477550000000     0.477230000000     0.147360000000     0.410143   
C2       C      0.478570000000     0.078770000000     0.352610000000     0.401118   
C3       C      0.495360000000     0.390780000000     0.498090000000     0.406032   
C4       C      0.473140000000     0.157980000000     0.493780000000     0.406463   
C5       C      0.150020000000     0.160140000000     0.487730000000     0.41259    
C6       C      0.156510000000     0.403670000000     0.013740000000     0.410537   
C7       C      0.144440000000     0.078710000000     0.350570000000     0.407323   
C8       C      0.146110000000     0.489200000000     0.153110000000     0.405444   
C9       C      0.393540000000     0.329560000000     0.394360000000     0.408616   
C10      C      0.382780000000     0.249070000000     0.088860000000     0.411012   
C11      C      0.374810000000     0.420200000000     0.252560000000     0.408285   
C12      C      0.379530000000     0.145450000000     0.246210000000     0.405272   
C13      C      0.242180000000     0.139690000000     0.243500000000     0.408438   
C14      C      0.210320000000     0.405480000000     0.269750000000     0.413329   
C15      C      0.222570000000     0.242440000000     0.096090000000     0.413267   
C16      C      0.229420000000     0.312960000000     0.407210000000     0.409141   
C17      C      0.217820000000     0.204870000000     0.012630000000     0.0818677  
C18      C      0.210910000000     0.076230000000     0.289260000000     0.0815833  
C19      C      0.147470000000     0.453040000000     0.237570000000     0.0761657  
C20      C      0.402200000000     0.200530000000     0.016740000000     0.0760982  
C21      C      0.465080000000     0.329220000000     0.448220000000     0.0818334  
C22      C      0.405900000000     0.084100000000     0.299800000000     0.0774336  
C23      C      0.222390000000     0.356980000000     0.485520000000     0.075753   
C24      C      0.411470000000     0.482300000000     0.208800000000     0.0827419  
H1       H      0.463890000000     0.074540000000     0.458660000000     0.196216   
H2       H      0.069550000000     0.430780000000     0.456300000000     0.196664   
H3       H      0.160750000000     0.079230000000     0.459960000000     0.199687   
H4       H      0.061250000000     0.034130000000     0.130370000000     0.204995   
H5       H      0.015200000000     0.426740000000     0.362750000000     0.134607   
H6       H      0.100070000000     0.450790000000     0.345250000000     0.19886    
H7       H      0.231810000000     0.013090000000     0.457120000000     0.129159   
H8       H      0.235690000000     0.063590000000     0.054870000000     0.192795   
H9       H      0.110840000000     0.144670000000     0.121220000000     0.144266   
H10      H      0.479570000000     0.097880000000     0.169230000000     0.206084   
H11      H      0.396430000000     0.035470000000     0.049100000000     0.135671   
H12      H      0.392240000000     0.007470000000     0.453800000000     0.193796   
H13      H      0.224950000000     0.096910000000     0.103480000000     0.211208   
H14      H      0.008310000000     0.135310000000     0.136160000000     0.204981   
H15      H      0.396420000000     0.457220000000     0.433210000000     0.20944    
H16      H      0.140570000000     0.418580000000     0.370960000000     0.206399   
H17      H      0.405970000000     0.240960000000     0.195210000000     0.201766   
H18      H      0.293290000000     0.381920000000     0.210750000000     0.202184   
H19      H      0.210010000000     0.226290000000     0.210520000000     0.195718   
H20      H      0.315940000000     0.271490000000     0.376290000000     0.192446   
H21      H      0.336420000000     0.362070000000     0.091080000000     0.133826   
H22      H      0.248350000000     0.372400000000     0.107250000000     0.193505   
H23      H      0.137000000000     0.308130000000     0.238460000000     0.136799   
H24      H      0.142330000000     0.232730000000     0.284060000000     0.192293   
H25      H      0.291140000000     0.186660000000     0.389360000000     0.127012   
H26      H      0.390280000000     0.193660000000     0.395980000000     0.192752   
H27      H      0.477320000000     0.278190000000     0.288810000000     0.140469   
H28      H      0.471090000000     0.315500000000     0.160560000000     0.205835   
H29      H      0.146470000000     0.210800000000     0.342260000000     0.209815   
H30      H      0.445020000000     0.197010000000     0.372670000000     0.208201   
H31      H      0.468200000000     0.343420000000     0.215010000000     0.20205    
H32      H      0.195270000000     0.386110000000     0.129480000000     0.21694    
H33      H      0.171940000000     0.213540000000     0.447590000000     0.10726    
H34      H      0.172770000000     0.254460000000     0.040670000000     0.103258   
H35      H      0.233600000000     0.176100000000     0.030550000000     0.0364516  
H36      H      0.245800000000     0.220810000000     0.489980000000     0.0237799  
H37      H      0.230240000000     0.080990000000     0.209440000000     0.102414   
H38      H      0.154230000000     0.122520000000     0.292370000000     0.115064   
H39      H      0.205410000000     0.042150000000     0.280070000000     0.0223246  
H40      H      0.238610000000     0.078170000000     0.319260000000     0.0303618  
H41      H      0.197250000000     0.498150000000     0.207910000000     0.10339    
H42      H      0.192490000000     0.463110000000     0.303260000000     0.109795   
H43      H      0.119800000000     0.471770000000     0.257420000000     0.0168776  
H44      H      0.130240000000     0.424490000000     0.220880000000     0.0357368  
H45      H      0.423490000000     0.265740000000     0.026600000000     0.103988   
H46      H      0.456030000000     0.216180000000     0.461710000000     0.100407   
H47      H      0.394500000000     0.174060000000     0.043650000000     0.0429697  
H48      H      0.372690000000     0.202170000000     0.488970000000     0.011127   
H49      H      0.488810000000     0.329460000000     0.026590000000     0.102585   
H50      H      0.405490000000     0.371990000000     0.453370000000     0.112638   
H51      H      0.490100000000     0.335970000000     0.416500000000     0.0182208  
H52      H      0.463860000000     0.294230000000     0.453690000000     0.0160594  
H53      H      0.386460000000     0.083630000000     0.219740000000     0.102111   
H54      H      0.466330000000     0.125120000000     0.298320000000     0.110567   
H55      H      0.381380000000     0.094110000000     0.330730000000     0.0232613  
H56      H      0.403630000000     0.049100000000     0.296550000000     0.022289   
H57      H      0.184800000000     0.299310000000     0.467420000000     0.101117   
H58      H      0.174440000000     0.346400000000     0.047900000000     0.10797    
H59      H      0.252710000000     0.346640000000     0.009320000000     0.0156489  
H60      H      0.234180000000     0.384790000000     0.462600000000     0.0419903  
H61      H      0.464720000000     0.432600000000     0.204180000000     0.115935   
H62      H      0.388740000000     0.477710000000     0.287690000000     0.106804   
H63      H      0.420920000000     0.015280000000     0.219570000000     0.0231382  
H64      H      0.383650000000     0.483890000000     0.178940000000     0.0288658  
N1       N      0.200480000000     0.234370000000     0.051240000000    -0.225952   
N2       N      0.179000000000     0.193460000000     0.478570000000    -0.224764   
N3       N      0.166980000000     0.094420000000     0.308760000000    -0.220625   
N4       N      0.226920000000     0.098690000000     0.243140000000    -0.224194   
N5       N      0.183780000000     0.441080000000     0.274830000000    -0.22873    
N6       N      0.168330000000     0.479500000000     0.197570000000    -0.223703   
N7       N      0.446190000000     0.193350000000     0.488710000000    -0.227688   
N8       N      0.405060000000     0.240910000000     0.044060000000    -0.226002   
N9       N      0.418350000000     0.344960000000     0.434660000000    -0.2244     
N10      N      0.481910000000     0.349360000000     0.495380000000    -0.22545    
N11      N      0.453830000000     0.096440000000     0.313370000000    -0.22236    
N12      N      0.391630000000     0.103730000000     0.251090000000    -0.225101   
N13      N      0.183350000000     0.368280000000     0.019380000000    -0.228274   
N14      N      0.208300000000     0.321670000000     0.452530000000    -0.225183   
N15      N      0.392980000000     0.460110000000     0.254100000000    -0.224384   
N16      N      0.453390000000     0.461260000000     0.188010000000    -0.219279   
O1       O      0.465070000000     0.013660000000     0.128900000000    -0.376815   
O2       O      0.011790000000     0.454890000000     0.129760000000    -0.373036   
O3       O      0.466400000000     0.041930000000     0.370730000000    -0.365702   
O4       O      0.012520000000     0.101140000000     0.370270000000    -0.377779   
O5       O      0.484760000000     0.415900000000     0.460590000000    -0.382176   
O6       O      0.019830000000     0.401880000000     0.037320000000    -0.371477   
O7       O      0.462120000000     0.130950000000     0.028770000000    -0.37937    
O8       O      0.007650000000     0.153330000000     0.462370000000    -0.381329   
O9       O      0.405280000000     0.063330000000     0.063880000000    -0.339837   
O10      O      0.493580000000     0.107660000000     0.137640000000    -0.527467   
O11      O      0.411250000000     0.483680000000     0.442830000000    -0.527358   
O12      O      0.496960000000     0.452940000000     0.355760000000    -0.343519   
O13      O      0.493150000000     0.493670000000     0.028210000000    -0.493556   
O14      O      0.491690000000     0.060500000000     0.471510000000    -0.632698   
O15      O      0.159170000000     0.135870000000     0.026200000000    -0.386626   
O16      O      0.116410000000     0.153630000000     0.455820000000    -0.383134   
O17      O      0.166220000000     0.429610000000     0.476990000000    -0.379351   
O18      O      0.122800000000     0.409000000000     0.045860000000    -0.383015   
O19      O      0.158370000000     0.042940000000     0.369710000000    -0.374597   
O20      O      0.110660000000     0.101160000000     0.368990000000    -0.370043   
O21      O      0.159560000000     0.023290000000     0.130350000000    -0.376179   
O22      O      0.112590000000     0.465010000000     0.137030000000    -0.372688   
O23      O      0.213620000000     0.078360000000     0.076690000000    -0.517552   
O24      O      0.115030000000     0.116030000000     0.136290000000    -0.355398   
O25      O      0.220080000000     0.494600000000     0.429230000000    -0.334757   
O26      O      0.123680000000     0.445260000000     0.370990000000    -0.536216   
O27      O      0.133430000000     0.064720000000     0.473150000000    -0.640584   
O28      O      0.135130000000     0.499450000000     0.030660000000    -0.49608    
O29      O      0.059240000000     0.101540000000     0.035210000000    -0.498864   
O30      O      0.066570000000     0.459910000000     0.467470000000    -0.62874    
O31      O      0.061900000000     0.034400000000     0.093400000000    -0.634005   
O32      O      0.064550000000     0.026100000000     0.408260000000    -0.491137   
O33      O      0.407570000000     0.294950000000     0.372250000000    -0.381745   
O34      O      0.357490000000     0.351140000000     0.380410000000    -0.380989   
O35      O      0.388570000000     0.286400000000     0.107800000000    -0.3903     
O36      O      0.358020000000     0.219510000000     0.109920000000    -0.376973   
O37      O      0.382250000000     0.397780000000     0.212220000000    -0.377554   
O38      O      0.350770000000     0.407400000000     0.291540000000    -0.37178    
O39      O      0.387650000000     0.170810000000     0.284060000000    -0.363968   
O40      O      0.358740000000     0.156850000000     0.204550000000    -0.369588   
O41      O      0.465410000000     0.251440000000     0.273610000000    -0.362457   
O42      O      0.412360000000     0.205550000000     0.371840000000    -0.522639   
O43      O      0.452660000000     0.328730000000     0.187270000000    -0.525941   
O44      O      0.363430000000     0.372700000000     0.111290000000    -0.333867   
O45      O      0.375640000000     0.319090000000     0.274760000000    -0.500298   
O46      O      0.378560000000     0.253500000000     0.211040000000    -0.627539   
O47      O      0.236140000000     0.161760000000     0.284590000000    -0.37117    
O48      O      0.262250000000     0.153850000000     0.202680000000    -0.378344   
O49      O      0.199830000000     0.379740000000     0.233370000000    -0.389638   
O50      O      0.244720000000     0.399930000000     0.301120000000    -0.377957   
O51      O      0.208280000000     0.275300000000     0.120620000000    -0.387625   
O52      O      0.256200000000     0.217740000000     0.111070000000    -0.373397   
O53      O      0.219590000000     0.277050000000     0.386160000000    -0.385607   
O54      O      0.258100000000     0.340490000000     0.388410000000    -0.374298   
O55      O      0.161140000000     0.224420000000     0.313210000000    -0.530247   
O56      O      0.256630000000     0.190580000000     0.387230000000    -0.342488   
O57      O      0.144670000000     0.303210000000     0.201970000000    -0.349877   
O58      O      0.222620000000     0.367890000000     0.130790000000    -0.528204   
O59      O      0.236610000000     0.242600000000     0.222460000000    -0.634143   
O60      O      0.234330000000     0.307110000000     0.286210000000    -0.50472    
O61      O      0.315340000000     0.210690000000     0.275830000000    -0.49483    
O62      O      0.297280000000     0.352430000000     0.220170000000    -0.640041   
O63      O      0.313320000000     0.272820000000     0.339460000000    -0.630127   
O64      O      0.299310000000     0.288940000000     0.158090000000    -0.503754   
Zr1      Zr     0.490880000000     0.063580000000     0.062200000000     1.38071    
Zr2      Zr     0.495420000000     0.491100000000     0.436890000000     1.36774    
Zr3      Zr     0.130290000000     0.069750000000     0.063420000000     1.38205    
Zr4      Zr     0.135030000000     0.495130000000     0.439730000000     1.37887    
Zr5      Zr     0.065390000000     0.464540000000     0.058810000000     1.3767     
Zr6      Zr     0.061760000000     0.095520000000     0.444380000000     1.38062    
Zr7      Zr     0.383790000000     0.247510000000     0.301500000000     1.36824    
Zr8      Zr     0.368010000000     0.325230000000     0.184760000000     1.38853    
Zr9      Zr     0.244980000000     0.235550000000     0.312490000000     1.38288    
Zr10     Zr     0.229230000000     0.314450000000     0.196400000000     1.39352    
Zr11     Zr     0.303690000000     0.344340000000     0.310230000000     1.38082    
Zr12     Zr     0.308260000000     0.217420000000     0.185600000000     1.37144    
C25      C      0.477550000000     0.477230000000     0.647360000000     0.410163   
C26      C      0.478570000000     0.078770000000     0.852610000000     0.40114    
C27      C      0.495360000000     0.390780000000     0.998090000000     0.405786   
C28      C      0.473140000000     0.157980000000     0.993770000000     0.406194   
C29      C      0.150020000000     0.160140000000     0.987730000000     0.412317   
C30      C      0.156510000000     0.403670000000     0.513740000000     0.410163   
C31      C      0.144440000000     0.078710000000     0.850570000000     0.40729    
C32      C      0.146110000000     0.489200000000     0.653110000000     0.405405   
C33      C      0.393540000000     0.329560000000     0.894360000000     0.408488   
C34      C      0.382780000000     0.249070000000     0.588860000000     0.411006   
C35      C      0.374810000000     0.420200000000     0.752570000000     0.408271   
C36      C      0.379530000000     0.145450000000     0.746210000000     0.405201   
C37      C      0.242180000000     0.139690000000     0.743500000000     0.408441   
C38      C      0.210320000000     0.405480000000     0.769750000000     0.413323   
C39      C      0.222570000000     0.242440000000     0.596090000000     0.413185   
C40      C      0.229420000000     0.312960000000     0.907210000000     0.409268   
C41      C      0.217820000000     0.204870000000     0.512620000000     0.0812732  
C42      C      0.210910000000     0.076230000000     0.789260000000     0.0815671  
C43      C      0.147470000000     0.453050000000     0.737570000000     0.076142   
C44      C      0.402200000000     0.200530000000     0.516750000000     0.0755138  
C45      C      0.465080000000     0.329230000000     0.948220000000     0.0818699  
C46      C      0.405900000000     0.084100000000     0.799810000000     0.0773994  
C47      C      0.222390000000     0.356980000000     0.985520000000     0.0751858  
C48      C      0.411470000000     0.482310000000     0.708810000000     0.0827018  
H65      H      0.463890000000     0.074540000000     0.958660000000     0.19618    
H66      H      0.069550000000     0.430780000000     0.956300000000     0.196642   
H67      H      0.160750000000     0.079240000000     0.959960000000     0.199575   
H68      H      0.061250000000     0.034130000000     0.630370000000     0.205018   
H69      H      0.015200000000     0.426740000000     0.862750000000     0.134606   
H70      H      0.100070000000     0.450790000000     0.845250000000     0.198862   
H71      H      0.231810000000     0.013090000000     0.957120000000     0.129164   
H72      H      0.235690000000     0.063590000000     0.554870000000     0.192721   
H73      H      0.110840000000     0.144670000000     0.621220000000     0.144252   
H74      H      0.479570000000     0.097890000000     0.669230000000     0.206138   
H75      H      0.396430000000     0.035470000000     0.549100000000     0.135607   
H76      H      0.392240000000     0.007470000000     0.953800000000     0.193934   
H77      H      0.224950000000     0.096910000000     0.603480000000     0.211197   
H78      H      0.008310000000     0.135310000000     0.636160000000     0.20498    
H79      H      0.396420000000     0.457220000000     0.933210000000     0.209502   
H80      H      0.140570000000     0.418580000000     0.870960000000     0.206396   
H81      H      0.405970000000     0.240960000000     0.695210000000     0.201826   
H82      H      0.293290000000     0.381920000000     0.710750000000     0.202183   
H83      H      0.210010000000     0.226290000000     0.710520000000     0.195672   
H84      H      0.315940000000     0.271490000000     0.876290000000     0.192423   
H85      H      0.336420000000     0.362070000000     0.591090000000     0.133834   
H86      H      0.248350000000     0.372400000000     0.607250000000     0.193481   
H87      H      0.137000000000     0.308130000000     0.738460000000     0.136796   
H88      H      0.142330000000     0.232730000000     0.784060000000     0.192386   
H89      H      0.291140000000     0.186660000000     0.889360000000     0.127006   
H90      H      0.390280000000     0.193660000000     0.895990000000     0.192636   
H91      H      0.477320000000     0.278190000000     0.788810000000     0.140468   
H92      H      0.471090000000     0.315500000000     0.660560000000     0.205825   
H93      H      0.146470000000     0.210800000000     0.842260000000     0.209719   
H94      H      0.445020000000     0.197010000000     0.872670000000     0.208158   
H95      H      0.468200000000     0.343420000000     0.715010000000     0.202048   
H96      H      0.195270000000     0.386110000000     0.629480000000     0.216932   
H97      H      0.171940000000     0.213540000000     0.947590000000     0.107242   
H98      H      0.172770000000     0.254470000000     0.540670000000     0.10312    
H99      H      0.233600000000     0.176100000000     0.530550000000     0.0365111  
H100     H      0.245800000000     0.220810000000     0.989980000000     0.0234622  
H101     H      0.230240000000     0.080990000000     0.709440000000     0.102414   
H102     H      0.154230000000     0.122520000000     0.792370000000     0.115114   
H103     H      0.205410000000     0.042140000000     0.780070000000     0.0223332  
H104     H      0.238610000000     0.078170000000     0.819260000000     0.0303598  
H105     H      0.197250000000     0.498150000000     0.707910000000     0.103388   
H106     H      0.192490000000     0.463120000000     0.803260000000     0.109795   
H107     H      0.119800000000     0.471770000000     0.757420000000     0.0168805  
H108     H      0.130240000000     0.424490000000     0.720880000000     0.0357583  
H109     H      0.423490000000     0.265740000000     0.526600000000     0.103876   
H110     H      0.456030000000     0.216180000000     0.961710000000     0.100375   
H111     H      0.394500000000     0.174060000000     0.543650000000     0.0430347  
H112     H      0.372690000000     0.202170000000     0.988980000000     0.0107973  
H113     H      0.488810000000     0.329460000000     0.526590000000     0.102376   
H114     H      0.405490000000     0.371990000000     0.953370000000     0.112583   
H115     H      0.490100000000     0.335970000000     0.916500000000     0.0181941  
H116     H      0.463860000000     0.294230000000     0.953690000000     0.015987   
H117     H      0.386460000000     0.083630000000     0.719740000000     0.102108   
H118     H      0.466330000000     0.125120000000     0.798320000000     0.110566   
H119     H      0.381380000000     0.094110000000     0.830730000000     0.0232571  
H120     H      0.403630000000     0.049100000000     0.796550000000     0.0223093  
H121     H      0.184800000000     0.299320000000     0.967420000000     0.101059   
H122     H      0.174440000000     0.346400000000     0.547900000000     0.107945   
H123     H      0.252700000000     0.346650000000     0.509320000000     0.0153195  
H124     H      0.234180000000     0.384790000000     0.962600000000     0.0420521  
H125     H      0.464720000000     0.432600000000     0.704180000000     0.115934   
H126     H      0.388740000000     0.477710000000     0.787700000000     0.10676    
H127     H      0.420920000000     0.015280000000     0.719570000000     0.0231295  
H128     H      0.383650000000     0.483890000000     0.678940000000     0.0288815  
N17      N      0.200480000000     0.234370000000     0.551240000000    -0.225854   
N18      N      0.179000000000     0.193460000000     0.978570000000    -0.224927   
N19      N      0.166980000000     0.094430000000     0.808760000000    -0.220637   
N20      N      0.226920000000     0.098690000000     0.743140000000    -0.22419    
N21      N      0.183780000000     0.441080000000     0.774840000000    -0.228707   
N22      N      0.168330000000     0.479500000000     0.697570000000    -0.223695   
N23      N      0.446190000000     0.193350000000     0.988710000000    -0.227862   
N24      N      0.405060000000     0.240910000000     0.544060000000    -0.225961   
N25      N      0.418350000000     0.344960000000     0.934660000000    -0.224403   
N26      N      0.481910000000     0.349360000000     0.995380000000    -0.225628   
N27      N      0.453830000000     0.096440000000     0.813370000000    -0.222355   
N28      N      0.391630000000     0.103730000000     0.751090000000    -0.225074   
N29      N      0.183350000000     0.368280000000     0.519380000000    -0.228415   
N30      N      0.208300000000     0.321670000000     0.952530000000    -0.225201   
N31      N      0.392980000000     0.460110000000     0.754100000000    -0.224337   
N32      N      0.453390000000     0.461260000000     0.688010000000    -0.219263   
O65      O      0.465060000000     0.013660000000     0.628910000000    -0.376753   
O66      O      0.011790000000     0.454890000000     0.629760000000    -0.373024   
O67      O      0.466400000000     0.041930000000     0.870720000000    -0.365682   
O68      O      0.012520000000     0.101140000000     0.870270000000    -0.377768   
O69      O      0.484760000000     0.415900000000     0.960590000000    -0.38217    
O70      O      0.019830000000     0.401880000000     0.537330000000    -0.371675   
O71      O      0.462120000000     0.130950000000     0.528780000000    -0.379645   
O72      O      0.007650000000     0.153330000000     0.962370000000    -0.381357   
O73      O      0.405280000000     0.063330000000     0.563880000000    -0.33986    
O74      O      0.493580000000     0.107660000000     0.637640000000    -0.527507   
O75      O      0.411240000000     0.483680000000     0.942830000000    -0.52751    
O76      O      0.496960000000     0.452940000000     0.855760000000    -0.343551   
O77      O      0.493150000000     0.493670000000     0.528210000000    -0.49371    
O78      O      0.491690000000     0.060500000000     0.971510000000    -0.632818   
O79      O      0.159170000000     0.135870000000     0.526200000000    -0.386887   
O80      O      0.116410000000     0.153630000000     0.955830000000    -0.383154   
O81      O      0.166220000000     0.429610000000     0.976990000000    -0.379635   
O82      O      0.122800000000     0.409000000000     0.545860000000    -0.382977   
O83      O      0.158370000000     0.042940000000     0.869710000000    -0.374576   
O84      O      0.110660000000     0.101160000000     0.868990000000    -0.370016   
O85      O      0.159560000000     0.023290000000     0.630350000000    -0.37617    
O86      O      0.112590000000     0.465010000000     0.637040000000    -0.372654   
O87      O      0.213620000000     0.078360000000     0.576690000000    -0.517546   
O88      O      0.115030000000     0.116030000000     0.636290000000    -0.355376   
O89      O      0.220080000000     0.494600000000     0.929240000000    -0.33484    
O90      O      0.123680000000     0.445260000000     0.870990000000    -0.5362     
O91      O      0.133430000000     0.064720000000     0.973150000000    -0.640623   
O92      O      0.135130000000     0.499450000000     0.530660000000    -0.496287   
O93      O      0.059240000000     0.101540000000     0.535210000000    -0.499006   
O94      O      0.066570000000     0.459910000000     0.967470000000    -0.628853   
O95      O      0.061900000000     0.034400000000     0.593400000000    -0.634039   
O96      O      0.064550000000     0.026100000000     0.908260000000    -0.491103   
O97      O      0.407570000000     0.294950000000     0.872250000000    -0.381727   
O98      O      0.357490000000     0.351150000000     0.880410000000    -0.380925   
O99      O      0.388570000000     0.286400000000     0.607800000000    -0.390323   
O100     O      0.358020000000     0.219510000000     0.609910000000    -0.376979   
O101     O      0.382250000000     0.397780000000     0.712220000000    -0.377496   
O102     O      0.350770000000     0.407400000000     0.791540000000    -0.371822   
O103     O      0.387650000000     0.170810000000     0.784060000000    -0.363946   
O104     O      0.358730000000     0.156850000000     0.704550000000    -0.36957    
O105     O      0.465410000000     0.251440000000     0.773610000000    -0.362465   
O106     O      0.412360000000     0.205550000000     0.871840000000    -0.522514   
O107     O      0.452660000000     0.328730000000     0.687270000000    -0.525943   
O108     O      0.363430000000     0.372700000000     0.611290000000    -0.333942   
O109     O      0.375640000000     0.319090000000     0.774760000000    -0.500299   
O110     O      0.378560000000     0.253500000000     0.711030000000    -0.627583   
O111     O      0.236140000000     0.161760000000     0.784590000000    -0.371165   
O112     O      0.262250000000     0.153850000000     0.702680000000    -0.378334   
O113     O      0.199830000000     0.379740000000     0.733370000000    -0.389643   
O114     O      0.244720000000     0.399940000000     0.801120000000    -0.377922   
O115     O      0.208280000000     0.275300000000     0.620620000000    -0.387612   
O116     O      0.256200000000     0.217740000000     0.611080000000    -0.37341    
O117     O      0.219590000000     0.277060000000     0.886160000000    -0.385699   
O118     O      0.258100000000     0.340490000000     0.888410000000    -0.374349   
O119     O      0.161140000000     0.224420000000     0.813200000000    -0.530251   
O120     O      0.256630000000     0.190580000000     0.887230000000    -0.342518   
O121     O      0.144670000000     0.303210000000     0.701970000000    -0.349877   
O122     O      0.222620000000     0.367890000000     0.630790000000    -0.528195   
O123     O      0.236610000000     0.242600000000     0.722470000000    -0.63411    
O124     O      0.234330000000     0.307110000000     0.786220000000    -0.504688   
O125     O      0.315340000000     0.210690000000     0.775840000000    -0.494811   
O126     O      0.297280000000     0.352430000000     0.720170000000    -0.64004    
O127     O      0.313320000000     0.272820000000     0.839460000000    -0.630115   
O128     O      0.299310000000     0.288940000000     0.658090000000    -0.503753   
Zr13     Zr     0.490880000000     0.063580000000     0.562200000000     1.38051    
Zr14     Zr     0.495420000000     0.491100000000     0.936890000000     1.36748    
Zr15     Zr     0.130290000000     0.069750000000     0.563420000000     1.38187    
Zr16     Zr     0.135030000000     0.495130000000     0.939730000000     1.3787     
Zr17     Zr     0.065390000000     0.464540000000     0.558810000000     1.37645    
Zr18     Zr     0.061760000000     0.095520000000     0.944380000000     1.38039    
Zr19     Zr     0.383790000000     0.247510000000     0.801500000000     1.36816    
Zr20     Zr     0.368010000000     0.325230000000     0.684760000000     1.38854    
Zr21     Zr     0.244980000000     0.235550000000     0.812490000000     1.38297    
Zr22     Zr     0.229230000000     0.314450000000     0.696400000000     1.39343    
Zr23     Zr     0.303690000000     0.344340000000     0.810230000000     1.38078    
Zr24     Zr     0.308260000000     0.217420000000     0.685600000000     1.37139    
C49      C      0.477550000000     0.977230000000     0.147360000000     0.406043   
C50      C      0.478570000000     0.578770000000     0.352610000000     0.401299   
C51      C      0.495360000000     0.890790000000     0.498090000000     0.405783   
C52      C      0.473140000000     0.657980000000     0.493780000000     0.406398   
C53      C      0.150020000000     0.660140000000     0.487730000000     0.41252    
C54      C      0.156510000000     0.903670000000     0.013740000000     0.410294   
C55      C      0.144440000000     0.578710000000     0.350570000000     0.407524   
C56      C      0.146110000000     0.989200000000     0.153110000000     0.401172   
C57      C      0.393540000000     0.829560000000     0.394360000000     0.408622   
C58      C      0.382780000000     0.749070000000     0.088860000000     0.411191   
C59      C      0.374810000000     0.920200000000     0.252560000000     0.408079   
C60      C      0.379530000000     0.645450000000     0.246210000000     0.405255   
C61      C      0.242180000000     0.639690000000     0.243500000000     0.408382   
C62      C      0.210320000000     0.905480000000     0.269750000000     0.413242   
C63      C      0.222570000000     0.742440000000     0.096090000000     0.413422   
C64      C      0.229420000000     0.812960000000     0.407210000000     0.409137   
C65      C      0.217820000000     0.704870000000     0.012630000000     0.0818927  
C66      C      0.210910000000     0.576220000000     0.289260000000     0.0816231  
C67      C      0.147470000000     0.953050000000     0.237570000000     0.075836   
C68      C      0.402200000000     0.700540000000     0.016740000000     0.0761841  
C69      C      0.465080000000     0.829220000000     0.448220000000     0.0818313  
C70      C      0.405900000000     0.584100000000     0.299800000000     0.0775505  
C71      C      0.222390000000     0.856980000000     0.485520000000     0.0758072  
C72      C      0.411470000000     0.982310000000     0.208800000000     0.0785256  
H129     H      0.463890000000     0.574540000000     0.458660000000     0.196251   
H130     H      0.069550000000     0.930780000000     0.456300000000     0.196783   
H131     H      0.160750000000     0.579230000000     0.459960000000     0.199691   
H132     H      0.061250000000     0.534130000000     0.130370000000     0.204432   
H133     H      0.015200000000     0.926740000000     0.362750000000     0.134723   
H134     H      0.100070000000     0.950790000000     0.345250000000     0.198452   
H135     H      0.231810000000     0.513090000000     0.457120000000     0.126016   
H136     H      0.235690000000     0.563590000000     0.054870000000     0.19227    
H137     H      0.110840000000     0.644670000000     0.121220000000     0.144317   
H138     H      0.479570000000     0.597880000000     0.169230000000     0.205905   
H139     H      0.396430000000     0.535470000000     0.049100000000     0.134973   
H140     H      0.392240000000     0.507480000000     0.453800000000     0.190566   
H141     H      0.224950000000     0.596910000000     0.103480000000     0.211066   
H142     H      0.008310000000     0.635310000000     0.136160000000     0.204948   
H143     H      0.396420000000     0.957220000000     0.433210000000     0.210103   
H144     H      0.140570000000     0.918580000000     0.370960000000     0.206418   
H145     H      0.405970000000     0.740960000000     0.195210000000     0.201764   
H146     H      0.293290000000     0.881920000000     0.210750000000     0.202047   
H147     H      0.210010000000     0.726300000000     0.210520000000     0.195715   
H148     H      0.315940000000     0.771490000000     0.376290000000     0.192448   
H149     H      0.336420000000     0.862070000000     0.091080000000     0.133761   
H150     H      0.248350000000     0.872400000000     0.107250000000     0.193325   
H151     H      0.137000000000     0.808130000000     0.238460000000     0.136809   
H152     H      0.142330000000     0.732730000000     0.284060000000     0.192276   
H153     H      0.291140000000     0.686660000000     0.389360000000     0.126979   
H154     H      0.390280000000     0.693660000000     0.395980000000     0.192757   
H155     H      0.477320000000     0.778190000000     0.288810000000     0.140478   
H156     H      0.471090000000     0.815500000000     0.160560000000     0.205881   
H157     H      0.146460000000     0.710800000000     0.342260000000     0.209754   
H158     H      0.445020000000     0.697020000000     0.372670000000     0.208258   
H159     H      0.468200000000     0.843410000000     0.215010000000     0.202139   
H160     H      0.195270000000     0.886110000000     0.129480000000     0.216762   
H161     H      0.171940000000     0.713540000000     0.447590000000     0.107276   
H162     H      0.172770000000     0.754460000000     0.040670000000     0.103289   
H163     H      0.233600000000     0.676100000000     0.030550000000     0.036421   
H164     H      0.245800000000     0.720810000000     0.489980000000     0.0237693  
H165     H      0.230240000000     0.580990000000     0.209440000000     0.101953   
H166     H      0.154230000000     0.622520000000     0.292370000000     0.115012   
H167     H      0.205410000000     0.542140000000     0.280070000000     0.0212045  
H168     H      0.238610000000     0.578170000000     0.319260000000     0.029951   
H169     H      0.197240000000     0.998140000000     0.207910000000     0.10213    
H170     H      0.192490000000     0.963120000000     0.303260000000     0.109149   
H171     H      0.119800000000     0.971770000000     0.257420000000     0.0163273  
H172     H      0.130240000000     0.924480000000     0.220880000000     0.0358168  
H173     H      0.423490000000     0.765740000000     0.026600000000     0.104006   
H174     H      0.456030000000     0.716180000000     0.461710000000     0.100418   
H175     H      0.394500000000     0.674060000000     0.043650000000     0.0429251  
H176     H      0.372690000000     0.702170000000     0.488970000000     0.0110988  
H177     H      0.488810000000     0.829460000000     0.026590000000     0.102588   
H178     H      0.405490000000     0.871990000000     0.453370000000     0.11254    
H179     H      0.490100000000     0.835970000000     0.416500000000     0.0182503  
H180     H      0.463860000000     0.794230000000     0.453690000000     0.0160769  
H181     H      0.386460000000     0.583630000000     0.219740000000     0.101832   
H182     H      0.466330000000     0.625130000000     0.298320000000     0.110493   
H183     H      0.381380000000     0.594110000000     0.330730000000     0.0229943  
H184     H      0.403630000000     0.549100000000     0.296550000000     0.0214793  
H185     H      0.184800000000     0.799310000000     0.467420000000     0.101093   
H186     H      0.174440000000     0.846390000000     0.047900000000     0.107945   
H187     H      0.252710000000     0.846650000000     0.009320000000     0.0155866  
H188     H      0.234180000000     0.884790000000     0.462600000000     0.04185    
H189     H      0.464720000000     0.932590000000     0.204180000000     0.115684   
H190     H      0.388740000000     0.977720000000     0.287690000000     0.105705   
H191     H      0.420920000000     0.515280000000     0.219570000000     0.0202017  
H192     H      0.383650000000     0.983880000000     0.178940000000     0.0288136  
N33      N      0.200480000000     0.734370000000     0.051240000000    -0.225974   
N34      N      0.179000000000     0.693460000000     0.478570000000    -0.224754   
N35      N      0.166980000000     0.594420000000     0.308760000000    -0.220838   
N36      N      0.226920000000     0.598690000000     0.243140000000    -0.224265   
N37      N      0.183780000000     0.941080000000     0.274830000000    -0.228681   
N38      N      0.168330000000     0.979500000000     0.197570000000    -0.22323    
N39      N      0.446190000000     0.693350000000     0.488710000000    -0.227675   
N40      N      0.405060000000     0.740910000000     0.044060000000    -0.226051   
N41      N      0.418350000000     0.844960000000     0.434660000000    -0.224394   
N42      N      0.481910000000     0.849350000000     0.495380000000    -0.225326   
N43      N      0.453830000000     0.596440000000     0.313370000000    -0.222497   
N44      N      0.391630000000     0.603730000000     0.251090000000    -0.225155   
N45      N      0.183350000000     0.868280000000     0.019380000000    -0.228212   
N46      N      0.208300000000     0.821680000000     0.452530000000    -0.225137   
N47      N      0.392980000000     0.960110000000     0.254100000000    -0.223943   
N48      N      0.453390000000     0.961260000000     0.188010000000    -0.21843    
O129     O      0.465060000000     0.513660000000     0.128900000000    -0.380207   
O130     O      0.011790000000     0.954890000000     0.129760000000    -0.372422   
O131     O      0.466400000000     0.541930000000     0.370730000000    -0.367486   
O132     O      0.012520000000     0.601140000000     0.370270000000    -0.377972   
O133     O      0.484760000000     0.915900000000     0.460590000000    -0.3818     
O134     O      0.019830000000     0.901880000000     0.037320000000    -0.371248   
O135     O      0.462120000000     0.630940000000     0.028770000000    -0.379087   
O136     O      0.007650000000     0.653330000000     0.462370000000    -0.381227   
O137     O      0.405280000000     0.563320000000     0.063880000000    -0.340007   
O138     O      0.493580000000     0.607660000000     0.137640000000    -0.527249   
O139     O      0.411250000000     0.983670000000     0.442830000000    -0.531108   
O140     O      0.496960000000     0.952940000000     0.355760000000    -0.344012   
O141     O      0.493150000000     0.993670000000     0.028210000000    -0.494864   
O142     O      0.491690000000     0.560500000000     0.471510000000    -0.633984   
O143     O      0.159170000000     0.635870000000     0.026200000000    -0.386495   
O144     O      0.116410000000     0.653630000000     0.455820000000    -0.383035   
O145     O      0.166210000000     0.929610000000     0.476990000000    -0.37907    
O146     O      0.122800000000     0.909000000000     0.045860000000    -0.382734   
O147     O      0.158370000000     0.542940000000     0.369710000000    -0.376533   
O148     O      0.110660000000     0.601160000000     0.368990000000    -0.370257   
O149     O      0.159550000000     0.523290000000     0.130350000000    -0.379713   
O150     O      0.112590000000     0.965000000000     0.137030000000    -0.372138   
O151     O      0.213620000000     0.578360000000     0.076690000000    -0.517531   
O152     O      0.115030000000     0.616030000000     0.136290000000    -0.355396   
O153     O      0.220080000000     0.994600000000     0.429230000000    -0.338069   
O154     O      0.123680000000     0.945260000000     0.370990000000    -0.536052   
O155     O      0.133430000000     0.564720000000     0.473150000000    -0.641872   
O156     O      0.135130000000     0.999450000000     0.030660000000    -0.49751    
O157     O      0.059240000000     0.601530000000     0.035210000000    -0.498746   
O158     O      0.066580000000     0.959910000000     0.467470000000    -0.628376   
O159     O      0.061900000000     0.534400000000     0.093400000000    -0.635231   
O160     O      0.064550000000     0.526100000000     0.408260000000    -0.493873   
O161     O      0.407570000000     0.794950000000     0.372250000000    -0.381732   
O162     O      0.357490000000     0.851140000000     0.380410000000    -0.381076   
O163     O      0.388570000000     0.786390000000     0.107800000000    -0.390351   
O164     O      0.358020000000     0.719510000000     0.109920000000    -0.37702    
O165     O      0.382250000000     0.897780000000     0.212220000000    -0.377575   
O166     O      0.350770000000     0.907410000000     0.291540000000    -0.371934   
O167     O      0.387650000000     0.670800000000     0.284060000000    -0.363972   
O168     O      0.358730000000     0.656850000000     0.204550000000    -0.36965    
O169     O      0.465410000000     0.751440000000     0.273610000000    -0.362445   
O170     O      0.412360000000     0.705550000000     0.371840000000    -0.522697   
O171     O      0.452660000000     0.828730000000     0.187270000000    -0.526037   
O172     O      0.363430000000     0.872700000000     0.111290000000    -0.334077   
O173     O      0.375640000000     0.819090000000     0.274760000000    -0.500277   
O174     O      0.378560000000     0.753500000000     0.211040000000    -0.627464   
O175     O      0.236140000000     0.661760000000     0.284590000000    -0.371185   
O176     O      0.262250000000     0.653850000000     0.202680000000    -0.3784     
O177     O      0.199830000000     0.879740000000     0.233370000000    -0.389702   
O178     O      0.244720000000     0.899930000000     0.301120000000    -0.37811    
O179     O      0.208280000000     0.775290000000     0.120620000000    -0.387651   
O180     O      0.256200000000     0.717740000000     0.111070000000    -0.373434   
O181     O      0.219590000000     0.777050000000     0.386160000000    -0.385584   
O182     O      0.258100000000     0.840490000000     0.388410000000    -0.374321   
O183     O      0.161140000000     0.724420000000     0.313210000000    -0.530148   
O184     O      0.256630000000     0.690580000000     0.387230000000    -0.342511   
O185     O      0.144670000000     0.803210000000     0.201970000000    -0.349844   
O186     O      0.222620000000     0.867880000000     0.130790000000    -0.528143   
O187     O      0.236610000000     0.742610000000     0.222460000000    -0.634108   
O188     O      0.234330000000     0.807110000000     0.286210000000    -0.50468    
O189     O      0.315340000000     0.710690000000     0.275830000000    -0.494844   
O190     O      0.297280000000     0.852430000000     0.220170000000    -0.640071   
O191     O      0.313320000000     0.772820000000     0.339460000000    -0.630105   
O192     O      0.299310000000     0.788940000000     0.158090000000    -0.503701   
Zr25     Zr     0.490880000000     0.563570000000     0.062200000000     1.379      
Zr26     Zr     0.495420000000     0.991100000000     0.436890000000     1.36301    
Zr27     Zr     0.130290000000     0.569750000000     0.063420000000     1.38042    
Zr28     Zr     0.135030000000     0.995130000000     0.439730000000     1.37393    
Zr29     Zr     0.065390000000     0.964540000000     0.058810000000     1.37424    
Zr30     Zr     0.061760000000     0.595520000000     0.444380000000     1.38026    
Zr31     Zr     0.383790000000     0.747510000000     0.301500000000     1.36825    
Zr32     Zr     0.368010000000     0.825240000000     0.184760000000     1.38855    
Zr33     Zr     0.244980000000     0.735550000000     0.312490000000     1.38293    
Zr34     Zr     0.229230000000     0.814460000000     0.196400000000     1.39365    
Zr35     Zr     0.303690000000     0.844340000000     0.310230000000     1.38071    
Zr36     Zr     0.308260000000     0.717420000000     0.185600000000     1.3715     
C73      C      0.477550000000     0.977230000000     0.647360000000     0.406004   
C74      C      0.478570000000     0.578780000000     0.852610000000     0.401416   
C75      C      0.495360000000     0.890790000000     0.998090000000     0.405643   
C76      C      0.473140000000     0.657990000000     0.993770000000     0.405989   
C77      C      0.150020000000     0.660140000000     0.987730000000     0.412268   
C78      C      0.156510000000     0.903670000000     0.513740000000     0.40996    
C79      C      0.144440000000     0.578710000000     0.850570000000     0.407662   
C80      C      0.146110000000     0.989200000000     0.653110000000     0.401161   
C81      C      0.393540000000     0.829560000000     0.894360000000     0.408591   
C82      C      0.382780000000     0.749070000000     0.588860000000     0.411217   
C83      C      0.374810000000     0.920200000000     0.752570000000     0.40805    
C84      C      0.379530000000     0.645450000000     0.746210000000     0.405252   
C85      C      0.242180000000     0.639690000000     0.743500000000     0.408385   
C86      C      0.210320000000     0.905480000000     0.769750000000     0.413225   
C87      C      0.222570000000     0.742440000000     0.596090000000     0.413351   
C88      C      0.229420000000     0.812960000000     0.907210000000     0.409059   
C89      C      0.217820000000     0.704870000000     0.512620000000     0.0812999  
C90      C      0.210910000000     0.576220000000     0.789260000000     0.0816349  
C91      C      0.147470000000     0.953050000000     0.737570000000     0.0757908  
C92      C      0.402200000000     0.700540000000     0.516750000000     0.0755436  
C93      C      0.465080000000     0.829220000000     0.948220000000     0.0818024  
C94      C      0.405900000000     0.584100000000     0.799810000000     0.0775324  
C95      C      0.222390000000     0.856980000000     0.985520000000     0.0751782  
C96      C      0.411470000000     0.982300000000     0.708810000000     0.0786347  
H193     H      0.463890000000     0.574540000000     0.958660000000     0.196219   
H194     H      0.069550000000     0.930780000000     0.956300000000     0.19675    
H195     H      0.160750000000     0.579230000000     0.959960000000     0.199659   
H196     H      0.061250000000     0.534130000000     0.630370000000     0.204445   
H197     H      0.015200000000     0.926740000000     0.862750000000     0.134722   
H198     H      0.100070000000     0.950790000000     0.845250000000     0.198454   
H199     H      0.231810000000     0.513090000000     0.957120000000     0.126017   
H200     H      0.235690000000     0.563590000000     0.554870000000     0.192191   
H201     H      0.110840000000     0.644670000000     0.621220000000     0.14431    
H202     H      0.479570000000     0.597880000000     0.669230000000     0.205906   
H203     H      0.396430000000     0.535470000000     0.549100000000     0.134792   
H204     H      0.392240000000     0.507480000000     0.953800000000     0.190597   
H205     H      0.224950000000     0.596910000000     0.603480000000     0.211056   
H206     H      0.008310000000     0.635310000000     0.636160000000     0.204941   
H207     H      0.396420000000     0.957220000000     0.933210000000     0.210046   
H208     H      0.140570000000     0.918580000000     0.870960000000     0.20641    
H209     H      0.405970000000     0.740960000000     0.695210000000     0.201827   
H210     H      0.293290000000     0.881920000000     0.710750000000     0.202054   
H211     H      0.210010000000     0.726300000000     0.710520000000     0.195674   
H212     H      0.315940000000     0.771490000000     0.876290000000     0.192446   
H213     H      0.336420000000     0.862070000000     0.591090000000     0.133765   
H214     H      0.248350000000     0.872400000000     0.607250000000     0.193353   
H215     H      0.137000000000     0.808130000000     0.738460000000     0.136786   
H216     H      0.142330000000     0.732730000000     0.784060000000     0.192406   
H217     H      0.291140000000     0.686660000000     0.889360000000     0.126975   
H218     H      0.390280000000     0.693660000000     0.895990000000     0.192557   
H219     H      0.477320000000     0.778190000000     0.788810000000     0.140479   
H220     H      0.471090000000     0.815500000000     0.660560000000     0.205872   
H221     H      0.146470000000     0.710800000000     0.842260000000     0.20973    
H222     H      0.445020000000     0.697020000000     0.872670000000     0.208144   
H223     H      0.468200000000     0.843410000000     0.715010000000     0.202136   
H224     H      0.195270000000     0.886110000000     0.629480000000     0.216867   
H225     H      0.171940000000     0.713540000000     0.947590000000     0.107255   
H226     H      0.172770000000     0.754460000000     0.540670000000     0.103189   
H227     H      0.233600000000     0.676100000000     0.530550000000     0.0364808  
H228     H      0.245800000000     0.720810000000     0.989980000000     0.0234542  
H229     H      0.230240000000     0.580990000000     0.709440000000     0.101955   
H230     H      0.154230000000     0.622520000000     0.792370000000     0.115018   
H231     H      0.205410000000     0.542140000000     0.780070000000     0.0211991  
H232     H      0.238610000000     0.578170000000     0.819260000000     0.0299409  
H233     H      0.197250000000     0.998150000000     0.707910000000     0.102048   
H234     H      0.192490000000     0.963120000000     0.803260000000     0.109191   
H235     H      0.119800000000     0.971770000000     0.757420000000     0.0163455  
H236     H      0.130240000000     0.924480000000     0.720880000000     0.0358299  
H237     H      0.423490000000     0.765740000000     0.526600000000     0.103945   
H238     H      0.456030000000     0.716180000000     0.961710000000     0.100394   
H239     H      0.394500000000     0.674060000000     0.543650000000     0.0430092  
H240     H      0.372690000000     0.702170000000     0.988980000000     0.0107599  
H241     H      0.488810000000     0.829460000000     0.526590000000     0.102403   
H242     H      0.405490000000     0.871990000000     0.953370000000     0.112489   
H243     H      0.490100000000     0.835970000000     0.916500000000     0.018246   
H244     H      0.463860000000     0.794230000000     0.953690000000     0.0160089  
H245     H      0.386460000000     0.583630000000     0.719740000000     0.101832   
H246     H      0.466330000000     0.625130000000     0.798320000000     0.110494   
H247     H      0.381380000000     0.594110000000     0.830730000000     0.0229793  
H248     H      0.403630000000     0.549100000000     0.796550000000     0.0214937  
H249     H      0.184800000000     0.799310000000     0.967420000000     0.101036   
H250     H      0.174450000000     0.846390000000     0.547900000000     0.107927   
H251     H      0.252710000000     0.846650000000     0.509320000000     0.0152371  
H252     H      0.234180000000     0.884790000000     0.962600000000     0.0419346  
H253     H      0.464720000000     0.932590000000     0.704180000000     0.115683   
H254     H      0.388730000000     0.977710000000     0.787700000000     0.10569    
H255     H      0.420920000000     0.515280000000     0.719570000000     0.0202074  
H256     H      0.383650000000     0.983890000000     0.678940000000     0.028784   
N49      N      0.200480000000     0.734370000000     0.551240000000    -0.225911   
N50      N      0.179000000000     0.693460000000     0.978570000000    -0.22492    
N51      N      0.166980000000     0.594420000000     0.808760000000    -0.220866   
N52      N      0.226920000000     0.598690000000     0.743140000000    -0.224266   
N53      N      0.183780000000     0.941080000000     0.774840000000    -0.228687   
N54      N      0.168330000000     0.979500000000     0.697570000000    -0.223153   
N55      N      0.446190000000     0.693350000000     0.988710000000    -0.227886   
N56      N      0.405060000000     0.740920000000     0.544060000000    -0.226048   
N57      N      0.418350000000     0.844960000000     0.934660000000    -0.224399   
N58      N      0.481910000000     0.849360000000     0.995380000000    -0.225518   
N59      N      0.453830000000     0.596440000000     0.813370000000    -0.222539   
N60      N      0.391630000000     0.603730000000     0.751090000000    -0.225142   
N61      N      0.183350000000     0.868280000000     0.519380000000    -0.228387   
N62      N      0.208300000000     0.821670000000     0.952530000000    -0.22511    
N63      N      0.392980000000     0.960110000000     0.754100000000    -0.223955   
N64      N      0.453390000000     0.961260000000     0.688010000000    -0.218437   
O193     O      0.465060000000     0.513660000000     0.628910000000    -0.380193   
O194     O      0.011790000000     0.954890000000     0.629760000000    -0.372401   
O195     O      0.466400000000     0.541930000000     0.870720000000    -0.367417   
O196     O      0.012520000000     0.601130000000     0.870270000000    -0.378076   
O197     O      0.484760000000     0.915900000000     0.960590000000    -0.381824   
O198     O      0.019830000000     0.901880000000     0.537330000000    -0.371369   
O199     O      0.462120000000     0.630950000000     0.528780000000    -0.379452   
O200     O      0.007650000000     0.653330000000     0.962370000000    -0.381215   
O201     O      0.405280000000     0.563330000000     0.563880000000    -0.339925   
O202     O      0.493580000000     0.607660000000     0.637640000000    -0.527217   
O203     O      0.411240000000     0.983680000000     0.942830000000    -0.53125    
O204     O      0.496960000000     0.952940000000     0.855760000000    -0.344045   
O205     O      0.493150000000     0.993670000000     0.528210000000    -0.495043   
O206     O      0.491690000000     0.560500000000     0.971510000000    -0.634099   
O207     O      0.159170000000     0.635870000000     0.526200000000    -0.386696   
O208     O      0.116410000000     0.653630000000     0.955830000000    -0.383072   
O209     O      0.166220000000     0.929610000000     0.976990000000    -0.379312   
O210     O      0.122800000000     0.909000000000     0.545860000000    -0.382657   
O211     O      0.158370000000     0.542950000000     0.869710000000    -0.376598   
O212     O      0.110660000000     0.601160000000     0.868990000000    -0.370277   
O213     O      0.159560000000     0.523290000000     0.630350000000    -0.379691   
O214     O      0.112590000000     0.965000000000     0.637040000000    -0.372103   
O215     O      0.213620000000     0.578360000000     0.576690000000    -0.517506   
O216     O      0.115030000000     0.616030000000     0.636290000000    -0.355339   
O217     O      0.220080000000     0.994600000000     0.929240000000    -0.338146   
O218     O      0.123680000000     0.945260000000     0.870990000000    -0.536035   
O219     O      0.133430000000     0.564720000000     0.973150000000    -0.641992   
O220     O      0.135130000000     0.999450000000     0.530660000000    -0.497685   
O221     O      0.059240000000     0.601540000000     0.535210000000    -0.498794   
O222     O      0.066580000000     0.959910000000     0.967470000000    -0.628496   
O223     O      0.061900000000     0.534400000000     0.593400000000    -0.635245   
O224     O      0.064550000000     0.526100000000     0.908260000000    -0.493833   
O225     O      0.407570000000     0.794950000000     0.872250000000    -0.381725   
O226     O      0.357490000000     0.851140000000     0.880410000000    -0.381071   
O227     O      0.388570000000     0.786390000000     0.607800000000    -0.39038    
O228     O      0.358020000000     0.719510000000     0.609910000000    -0.377034   
O229     O      0.382250000000     0.897780000000     0.712220000000    -0.37752    
O230     O      0.350770000000     0.907410000000     0.791540000000    -0.371936   
O231     O      0.387650000000     0.670800000000     0.784060000000    -0.363984   
O232     O      0.358730000000     0.656850000000     0.704550000000    -0.369657   
O233     O      0.465410000000     0.751440000000     0.773610000000    -0.362452   
O234     O      0.412360000000     0.705560000000     0.871840000000    -0.522468   
O235     O      0.452660000000     0.828730000000     0.687270000000    -0.526037   
O236     O      0.363430000000     0.872700000000     0.611290000000    -0.334152   
O237     O      0.375640000000     0.819080000000     0.774760000000    -0.500333   
O238     O      0.378560000000     0.753500000000     0.711030000000    -0.627504   
O239     O      0.236140000000     0.661760000000     0.784590000000    -0.371183   
O240     O      0.262250000000     0.653850000000     0.702680000000    -0.378396   
O241     O      0.199830000000     0.879740000000     0.733370000000    -0.389703   
O242     O      0.244720000000     0.899940000000     0.801120000000    -0.37803    
O243     O      0.208280000000     0.775290000000     0.620620000000    -0.387646   
O244     O      0.256200000000     0.717740000000     0.611080000000    -0.373448   
O245     O      0.219590000000     0.777060000000     0.886160000000    -0.385625   
O246     O      0.258110000000     0.840500000000     0.888410000000    -0.374247   
O247     O      0.161140000000     0.724420000000     0.813200000000    -0.530246   
O248     O      0.256630000000     0.690580000000     0.887230000000    -0.342546   
O249     O      0.144670000000     0.803200000000     0.701970000000    -0.349822   
O250     O      0.222620000000     0.867890000000     0.630790000000    -0.528259   
O251     O      0.236610000000     0.742610000000     0.722470000000    -0.634069   
O252     O      0.234330000000     0.807110000000     0.786220000000    -0.504676   
O253     O      0.315340000000     0.710690000000     0.775840000000    -0.494833   
O254     O      0.297280000000     0.852430000000     0.720170000000    -0.640064   
O255     O      0.313320000000     0.772820000000     0.839460000000    -0.630153   
O256     O      0.299310000000     0.788940000000     0.658090000000    -0.503701   
Zr37     Zr     0.490880000000     0.563570000000     0.562200000000     1.37873    
Zr38     Zr     0.495420000000     0.991100000000     0.936890000000     1.36276    
Zr39     Zr     0.130290000000     0.569740000000     0.563420000000     1.38017    
Zr40     Zr     0.135030000000     0.995130000000     0.939730000000     1.37376    
Zr41     Zr     0.065390000000     0.964550000000     0.558810000000     1.37399    
Zr42     Zr     0.061760000000     0.595520000000     0.944380000000     1.38009    
Zr43     Zr     0.383790000000     0.747510000000     0.801500000000     1.36827    
Zr44     Zr     0.368010000000     0.825240000000     0.684760000000     1.38855    
Zr45     Zr     0.244980000000     0.735550000000     0.812490000000     1.383      
Zr46     Zr     0.229230000000     0.814460000000     0.696400000000     1.39351    
Zr47     Zr     0.303690000000     0.844330000000     0.810230000000     1.38066    
Zr48     Zr     0.308260000000     0.717420000000     0.685600000000     1.37143    
C97      C      0.977550000000     0.477230000000     0.147360000000     0.409662   
C98      C      0.978570000000     0.078770000000     0.352610000000     0.400684   
C99      C      0.995360000000     0.390780000000     0.498090000000     0.405547   
C100     C      0.973130000000     0.157980000000     0.493780000000     0.405955   
C101     C      0.650020000000     0.160140000000     0.487730000000     0.412508   
C102     C      0.656510000000     0.403670000000     0.013740000000     0.410467   
C103     C      0.644430000000     0.078710000000     0.350570000000     0.407327   
C104     C      0.646110000000     0.489200000000     0.153110000000     0.405384   
C105     C      0.893550000000     0.329560000000     0.394360000000     0.408591   
C106     C      0.882790000000     0.249070000000     0.088860000000     0.410977   
C107     C      0.874810000000     0.420200000000     0.252560000000     0.408235   
C108     C      0.879530000000     0.145450000000     0.246210000000     0.405196   
C109     C      0.742180000000     0.139690000000     0.243500000000     0.408436   
C110     C      0.710320000000     0.405480000000     0.269750000000     0.413221   
C111     C      0.722570000000     0.242440000000     0.096090000000     0.413192   
C112     C      0.729420000000     0.312960000000     0.407210000000     0.409045   
C113     C      0.717830000000     0.204870000000     0.012630000000     0.0817902  
C114     C      0.710920000000     0.076230000000     0.289260000000     0.0815467  
C115     C      0.647480000000     0.453040000000     0.237570000000     0.0762435  
C116     C      0.902210000000     0.200530000000     0.016740000000     0.0761335  
C117     C      0.965080000000     0.329220000000     0.448220000000     0.0818197  
C118     C      0.905900000000     0.084100000000     0.299800000000     0.0773554  
C119     C      0.722390000000     0.356980000000     0.485520000000     0.0757789  
C120     C      0.911470000000     0.482300000000     0.208800000000     0.0827264  
H257     H      0.963890000000     0.074540000000     0.458660000000     0.196208   
H258     H      0.569550000000     0.430780000000     0.456300000000     0.196613   
H259     H      0.660750000000     0.079230000000     0.459960000000     0.199695   
H260     H      0.561240000000     0.034130000000     0.130370000000     0.204919   
H261     H      0.515200000000     0.426740000000     0.362750000000     0.134204   
H262     H      0.600070000000     0.450790000000     0.345250000000     0.198798   
H263     H      0.731810000000     0.013090000000     0.457120000000     0.129161   
H264     H      0.735690000000     0.063590000000     0.054870000000     0.192786   
H265     H      0.610840000000     0.144670000000     0.121220000000     0.144238   
H266     H      0.979570000000     0.097880000000     0.169230000000     0.20613    
H267     H      0.896430000000     0.035470000000     0.049100000000     0.13568    
H268     H      0.892240000000     0.007470000000     0.453800000000     0.193903   
H269     H      0.724960000000     0.096910000000     0.103480000000     0.211169   
H270     H      0.508310000000     0.135310000000     0.136160000000     0.20456    
H271     H      0.896420000000     0.457220000000     0.433210000000     0.209524   
H272     H      0.640570000000     0.418580000000     0.370960000000     0.206372   
H273     H      0.905980000000     0.240960000000     0.195210000000     0.201733   
H274     H      0.793300000000     0.381920000000     0.210750000000     0.202215   
H275     H      0.710010000000     0.226290000000     0.210520000000     0.19571    
H276     H      0.815940000000     0.271490000000     0.376290000000     0.192446   
H277     H      0.836420000000     0.362070000000     0.091080000000     0.133829   
H278     H      0.748340000000     0.372400000000     0.107250000000     0.193729   
H279     H      0.637010000000     0.308130000000     0.238460000000     0.136771   
H280     H      0.642340000000     0.232730000000     0.284060000000     0.192341   
H281     H      0.791140000000     0.186660000000     0.389360000000     0.127018   
H282     H      0.890280000000     0.193660000000     0.395980000000     0.192753   
H283     H      0.977320000000     0.278190000000     0.288810000000     0.140417   
H284     H      0.971090000000     0.315500000000     0.160560000000     0.205749   
H285     H      0.646470000000     0.210800000000     0.342260000000     0.20982    
H286     H      0.945020000000     0.197010000000     0.372670000000     0.20813    
H287     H      0.968200000000     0.343420000000     0.215010000000     0.201975   
H288     H      0.695270000000     0.386110000000     0.129480000000     0.216876   
H289     H      0.671940000000     0.213540000000     0.447590000000     0.107222   
H290     H      0.672770000000     0.254460000000     0.040670000000     0.103234   
H291     H      0.733600000000     0.176100000000     0.030550000000     0.0364728  
H292     H      0.745800000000     0.220810000000     0.489980000000     0.0237949  
H293     H      0.730240000000     0.080990000000     0.209440000000     0.102415   
H294     H      0.654230000000     0.122520000000     0.292370000000     0.115034   
H295     H      0.705420000000     0.042150000000     0.280070000000     0.0223337  
H296     H      0.738610000000     0.078170000000     0.319260000000     0.0303718  
H297     H      0.697250000000     0.498150000000     0.207910000000     0.103394   
H298     H      0.692490000000     0.463110000000     0.303260000000     0.109791   
H299     H      0.619800000000     0.471770000000     0.257420000000     0.016817   
H300     H      0.630240000000     0.424490000000     0.220880000000     0.035687   
H301     H      0.923490000000     0.265740000000     0.026600000000     0.103972   
H302     H      0.956030000000     0.216180000000     0.461710000000     0.10034    
H303     H      0.894500000000     0.174060000000     0.043650000000     0.0429518  
H304     H      0.872700000000     0.202170000000     0.488970000000     0.0111277  
H305     H      0.988810000000     0.329460000000     0.026590000000     0.102478   
H306     H      0.905490000000     0.371990000000     0.453370000000     0.112646   
H307     H      0.990100000000     0.335970000000     0.416500000000     0.0181331  
H308     H      0.963860000000     0.294230000000     0.453690000000     0.0160209  
H309     H      0.886460000000     0.083630000000     0.219740000000     0.102103   
H310     H      0.966330000000     0.125120000000     0.298320000000     0.110491   
H311     H      0.881380000000     0.094110000000     0.330730000000     0.0232832  
H312     H      0.903630000000     0.049100000000     0.296550000000     0.0223096  
H313     H      0.684800000000     0.299310000000     0.467420000000     0.101097   
H314     H      0.674450000000     0.346400000000     0.047900000000     0.10794    
H315     H      0.752710000000     0.346640000000     0.009320000000     0.0156395  
H316     H      0.734180000000     0.384790000000     0.462600000000     0.0419818  
H317     H      0.964720000000     0.432600000000     0.204180000000     0.115847   
H318     H      0.888730000000     0.477710000000     0.287690000000     0.10678    
H319     H      0.920930000000     0.015280000000     0.219570000000     0.0231377  
H320     H      0.883650000000     0.483890000000     0.178940000000     0.0288707  
N65      N      0.700480000000     0.234370000000     0.051240000000    -0.225918   
N66      N      0.679010000000     0.193460000000     0.478570000000    -0.224701   
N67      N      0.666980000000     0.094420000000     0.308760000000    -0.220586   
N68      N      0.726920000000     0.098690000000     0.243140000000    -0.224189   
N69      N      0.683780000000     0.441080000000     0.274830000000    -0.228736   
N70      N      0.668330000000     0.479500000000     0.197570000000    -0.223711   
N71      N      0.946190000000     0.193350000000     0.488710000000    -0.227671   
N72      N      0.905060000000     0.240910000000     0.044060000000    -0.226038   
N73      N      0.918350000000     0.344960000000     0.434660000000    -0.224427   
N74      N      0.981910000000     0.349360000000     0.495380000000    -0.225396   
N75      N      0.953840000000     0.096440000000     0.313370000000    -0.222328   
N76      N      0.891630000000     0.103730000000     0.251090000000    -0.225084   
N77      N      0.683360000000     0.368280000000     0.019380000000    -0.228254   
N78      N      0.708300000000     0.321670000000     0.452530000000    -0.225175   
N79      N      0.892990000000     0.460110000000     0.254100000000    -0.224348   
N80      N      0.953390000000     0.461260000000     0.188010000000    -0.219216   
O257     O      0.965060000000     0.013660000000     0.128900000000    -0.376685   
O258     O      0.511790000000     0.454890000000     0.129760000000    -0.373466   
O259     O      0.966400000000     0.041930000000     0.370730000000    -0.365631   
O260     O      0.512520000000     0.101140000000     0.370270000000    -0.378193   
O261     O      0.984760000000     0.415900000000     0.460590000000    -0.382144   
O262     O      0.519830000000     0.401880000000     0.037320000000    -0.371906   
O263     O      0.962120000000     0.130950000000     0.028770000000    -0.379311   
O264     O      0.507650000000     0.153330000000     0.462370000000    -0.381827   
O265     O      0.905280000000     0.063330000000     0.063880000000    -0.3398     
O266     O      0.993580000000     0.107660000000     0.137640000000    -0.527916   
O267     O      0.911240000000     0.483680000000     0.442830000000    -0.527443   
O268     O      0.996960000000     0.452940000000     0.355760000000    -0.343898   
O269     O      0.993150000000     0.493670000000     0.028210000000    -0.493679   
O270     O      0.991690000000     0.060500000000     0.471510000000    -0.632814   
O271     O      0.659170000000     0.135870000000     0.026200000000    -0.38664    
O272     O      0.616410000000     0.153630000000     0.455820000000    -0.383121   
O273     O      0.666220000000     0.429610000000     0.476990000000    -0.37933    
O274     O      0.622800000000     0.409000000000     0.045860000000    -0.383002   
O275     O      0.658370000000     0.042940000000     0.369710000000    -0.374575   
O276     O      0.610660000000     0.101160000000     0.368990000000    -0.370113   
O277     O      0.659560000000     0.023290000000     0.130350000000    -0.37619    
O278     O      0.612590000000     0.465010000000     0.137030000000    -0.372681   
O279     O      0.713620000000     0.078360000000     0.076690000000    -0.517549   
O280     O      0.615030000000     0.116030000000     0.136290000000    -0.355426   
O281     O      0.720080000000     0.494600000000     0.429230000000    -0.334749   
O282     O      0.623680000000     0.445260000000     0.370990000000    -0.536211   
O283     O      0.633430000000     0.064720000000     0.473150000000    -0.64057    
O284     O      0.635130000000     0.499450000000     0.030660000000    -0.496067   
O285     O      0.559240000000     0.101540000000     0.035210000000    -0.498992   
O286     O      0.566570000000     0.459910000000     0.467470000000    -0.628881   
O287     O      0.561900000000     0.034400000000     0.093400000000    -0.634084   
O288     O      0.564540000000     0.026100000000     0.408260000000    -0.491317   
O289     O      0.907570000000     0.294950000000     0.372250000000    -0.381788   
O290     O      0.857490000000     0.351140000000     0.380410000000    -0.38092    
O291     O      0.888570000000     0.286400000000     0.107800000000    -0.39031    
O292     O      0.858020000000     0.219510000000     0.109920000000    -0.376928   
O293     O      0.882250000000     0.397780000000     0.212220000000    -0.377551   
O294     O      0.850770000000     0.407400000000     0.291540000000    -0.371774   
O295     O      0.887650000000     0.170810000000     0.284060000000    -0.363964   
O296     O      0.858730000000     0.156850000000     0.204550000000    -0.369565   
O297     O      0.965410000000     0.251440000000     0.273610000000    -0.362577   
O298     O      0.912360000000     0.205550000000     0.371840000000    -0.522649   
O299     O      0.952660000000     0.328730000000     0.187270000000    -0.525926   
O300     O      0.863430000000     0.372700000000     0.111290000000    -0.333877   
O301     O      0.875640000000     0.319090000000     0.274760000000    -0.500302   
O302     O      0.878570000000     0.253500000000     0.211040000000    -0.627477   
O303     O      0.736140000000     0.161760000000     0.284590000000    -0.371165   
O304     O      0.762250000000     0.153850000000     0.202680000000    -0.378331   
O305     O      0.699830000000     0.379740000000     0.233370000000    -0.389609   
O306     O      0.744730000000     0.399930000000     0.301120000000    -0.37791    
O307     O      0.708270000000     0.275300000000     0.120620000000    -0.387583   
O308     O      0.756200000000     0.217740000000     0.111070000000    -0.373375   
O309     O      0.719590000000     0.277050000000     0.386160000000    -0.385588   
O310     O      0.758110000000     0.340490000000     0.388410000000    -0.374259   
O311     O      0.661140000000     0.224420000000     0.313210000000    -0.530354   
O312     O      0.756630000000     0.190580000000     0.387230000000    -0.34248    
O313     O      0.644680000000     0.303210000000     0.201970000000    -0.349966   
O314     O      0.722630000000     0.367890000000     0.130790000000    -0.528352   
O315     O      0.736610000000     0.242600000000     0.222460000000    -0.634143   
O316     O      0.734330000000     0.307110000000     0.286210000000    -0.504732   
O317     O      0.815340000000     0.210690000000     0.275830000000    -0.494782   
O318     O      0.797280000000     0.352430000000     0.220170000000    -0.64006    
O319     O      0.813320000000     0.272820000000     0.339460000000    -0.630074   
O320     O      0.799310000000     0.288940000000     0.158090000000    -0.503759   
Zr49     Zr     0.990880000000     0.063580000000     0.062200000000     1.38023    
Zr50     Zr     0.995420000000     0.491100000000     0.436890000000     1.36717    
Zr51     Zr     0.630300000000     0.069750000000     0.063420000000     1.38205    
Zr52     Zr     0.635030000000     0.495130000000     0.439730000000     1.37879    
Zr53     Zr     0.565390000000     0.464540000000     0.058810000000     1.37648    
Zr54     Zr     0.561760000000     0.095520000000     0.444380000000     1.38042    
Zr55     Zr     0.883800000000     0.247510000000     0.301500000000     1.3682     
Zr56     Zr     0.868010000000     0.325230000000     0.184760000000     1.38849    
Zr57     Zr     0.744980000000     0.235550000000     0.312490000000     1.38288    
Zr58     Zr     0.729230000000     0.314450000000     0.196400000000     1.39356    
Zr59     Zr     0.803690000000     0.344340000000     0.310230000000     1.38086    
Zr60     Zr     0.808260000000     0.217420000000     0.185600000000     1.3714     
C121     C      0.977550000000     0.477230000000     0.647360000000     0.409682   
C122     C      0.978570000000     0.078770000000     0.852610000000     0.400706   
C123     C      0.995360000000     0.390780000000     0.998090000000     0.405301   
C124     C      0.973130000000     0.157980000000     0.993770000000     0.405686   
C125     C      0.650020000000     0.160140000000     0.987730000000     0.412307   
C126     C      0.656510000000     0.403670000000     0.513740000000     0.410093   
C127     C      0.644430000000     0.078710000000     0.850570000000     0.407294   
C128     C      0.646100000000     0.489200000000     0.653110000000     0.405313   
C129     C      0.893550000000     0.329560000000     0.894360000000     0.408457   
C130     C      0.882790000000     0.249070000000     0.588860000000     0.410971   
C131     C      0.874810000000     0.420200000000     0.752570000000     0.408221   
C132     C      0.879530000000     0.145450000000     0.746210000000     0.405187   
C133     C      0.742180000000     0.139690000000     0.743500000000     0.408437   
C134     C      0.710320000000     0.405480000000     0.769750000000     0.413215   
C135     C      0.722570000000     0.242440000000     0.596090000000     0.413111   
C136     C      0.729420000000     0.312960000000     0.907210000000     0.409263   
C137     C      0.717830000000     0.204870000000     0.512620000000     0.081226   
C138     C      0.710920000000     0.076230000000     0.789260000000     0.0815307  
C139     C      0.647480000000     0.453050000000     0.737570000000     0.076207   
C140     C      0.902210000000     0.200530000000     0.516750000000     0.0755487  
C141     C      0.965080000000     0.329230000000     0.948220000000     0.0818561  
C142     C      0.905900000000     0.084100000000     0.799810000000     0.0773245  
C143     C      0.722390000000     0.356980000000     0.985520000000     0.0752133  
C144     C      0.911470000000     0.482310000000     0.708810000000     0.0826863  
H321     H      0.963890000000     0.074540000000     0.958660000000     0.196174   
H322     H      0.569550000000     0.430780000000     0.956300000000     0.19659    
H323     H      0.660750000000     0.079240000000     0.959960000000     0.199577   
H324     H      0.561240000000     0.034130000000     0.630370000000     0.204948   
H325     H      0.515190000000     0.426740000000     0.862750000000     0.134262   
H326     H      0.600070000000     0.450790000000     0.845250000000     0.198802   
H327     H      0.731810000000     0.013090000000     0.957120000000     0.129165   
H328     H      0.735680000000     0.063590000000     0.554870000000     0.192804   
H329     H      0.610840000000     0.144670000000     0.621220000000     0.144224   
H330     H      0.979570000000     0.097890000000     0.669230000000     0.206187   
H331     H      0.896430000000     0.035470000000     0.549100000000     0.13561    
H332     H      0.892240000000     0.007470000000     0.953800000000     0.193933   
H333     H      0.724960000000     0.096910000000     0.603480000000     0.211181   
H334     H      0.508310000000     0.135310000000     0.636160000000     0.204557   
H335     H      0.896420000000     0.457220000000     0.933210000000     0.209496   
H336     H      0.640570000000     0.418580000000     0.870960000000     0.20637    
H337     H      0.905980000000     0.240960000000     0.695210000000     0.201803   
H338     H      0.793300000000     0.381920000000     0.710750000000     0.202214   
H339     H      0.710010000000     0.226290000000     0.710520000000     0.195665   
H340     H      0.815940000000     0.271490000000     0.876290000000     0.192429   
H341     H      0.836420000000     0.362070000000     0.591090000000     0.133836   
H342     H      0.748340000000     0.372400000000     0.607250000000     0.193705   
H343     H      0.637010000000     0.308130000000     0.738460000000     0.136768   
H344     H      0.642340000000     0.232730000000     0.784060000000     0.192433   
H345     H      0.791130000000     0.186660000000     0.889360000000     0.127113   
H346     H      0.890280000000     0.193660000000     0.895990000000     0.192624   
H347     H      0.977310000000     0.278190000000     0.788810000000     0.140438   
H348     H      0.971090000000     0.315500000000     0.660560000000     0.20574    
H349     H      0.646470000000     0.210800000000     0.842260000000     0.209724   
H350     H      0.945020000000     0.197010000000     0.872670000000     0.208088   
H351     H      0.968200000000     0.343420000000     0.715010000000     0.201975   
H352     H      0.695270000000     0.386110000000     0.629480000000     0.216867   
H353     H      0.671940000000     0.213540000000     0.947590000000     0.107226   
H354     H      0.672770000000     0.254470000000     0.540670000000     0.103095   
H355     H      0.733600000000     0.176100000000     0.530550000000     0.0365273  
H356     H      0.745800000000     0.220810000000     0.989980000000     0.0234804  
H357     H      0.730240000000     0.080990000000     0.709440000000     0.102416   
H358     H      0.654230000000     0.122520000000     0.792370000000     0.115084   
H359     H      0.705420000000     0.042140000000     0.780070000000     0.0223403  
H360     H      0.738610000000     0.078170000000     0.819260000000     0.0303688  
H361     H      0.697250000000     0.498150000000     0.707910000000     0.103389   
H362     H      0.692490000000     0.463120000000     0.803260000000     0.109791   
H363     H      0.619800000000     0.471770000000     0.757420000000     0.0168226  
H364     H      0.630240000000     0.424490000000     0.720880000000     0.0357106  
H365     H      0.923490000000     0.265740000000     0.526600000000     0.103861   
H366     H      0.956030000000     0.216180000000     0.961710000000     0.100308   
H367     H      0.894500000000     0.174060000000     0.543650000000     0.0430177  
H368     H      0.872700000000     0.202170000000     0.988980000000     0.0107958  
H369     H      0.988810000000     0.329460000000     0.526590000000     0.102269   
H370     H      0.905490000000     0.371990000000     0.953370000000     0.112594   
H371     H      0.990100000000     0.335970000000     0.916500000000     0.0181097  
H372     H      0.963860000000     0.294230000000     0.953690000000     0.015949   
H373     H      0.886460000000     0.083630000000     0.719740000000     0.102102   
H374     H      0.966330000000     0.125120000000     0.798320000000     0.110493   
H375     H      0.881380000000     0.094110000000     0.830730000000     0.0232763  
H376     H      0.903630000000     0.049100000000     0.796550000000     0.0223278  
H377     H      0.684800000000     0.299320000000     0.967420000000     0.101041   
H378     H      0.674450000000     0.346400000000     0.547900000000     0.107914   
H379     H      0.752710000000     0.346650000000     0.509320000000     0.0153144  
H380     H      0.734180000000     0.384790000000     0.962600000000     0.0420454  
H381     H      0.964720000000     0.432600000000     0.704180000000     0.115845   
H382     H      0.888730000000     0.477710000000     0.787700000000     0.106735   
H383     H      0.920930000000     0.015280000000     0.719570000000     0.0231256  
H384     H      0.883650000000     0.483890000000     0.678940000000     0.0288862  
N81      N      0.700480000000     0.234370000000     0.551240000000    -0.225825   
N82      N      0.679000000000     0.193460000000     0.978570000000    -0.224905   
N83      N      0.666980000000     0.094430000000     0.808760000000    -0.220599   
N84      N      0.726920000000     0.098690000000     0.743140000000    -0.224186   
N85      N      0.683780000000     0.441080000000     0.774840000000    -0.228711   
N86      N      0.668330000000     0.479500000000     0.697570000000    -0.223674   
N87      N      0.946190000000     0.193350000000     0.988710000000    -0.227845   
N88      N      0.905060000000     0.240910000000     0.544060000000    -0.225997   
N89      N      0.918350000000     0.344960000000     0.934660000000    -0.224428   
N90      N      0.981910000000     0.349360000000     0.995380000000    -0.225573   
N91      N      0.953840000000     0.096440000000     0.813370000000    -0.222324   
N92      N      0.891630000000     0.103730000000     0.751090000000    -0.225068   
N93      N      0.683360000000     0.368280000000     0.519380000000    -0.228396   
N94      N      0.708300000000     0.321670000000     0.952530000000    -0.225209   
N95      N      0.892990000000     0.460110000000     0.754100000000    -0.224301   
N96      N      0.953390000000     0.461260000000     0.688010000000    -0.2192     
O321     O      0.965060000000     0.013660000000     0.628910000000    -0.376674   
O322     O      0.511790000000     0.454890000000     0.629760000000    -0.373448   
O323     O      0.966400000000     0.041930000000     0.870720000000    -0.365612   
O324     O      0.512520000000     0.101140000000     0.870270000000    -0.378183   
O325     O      0.984760000000     0.415900000000     0.960590000000    -0.382131   
O326     O      0.519830000000     0.401880000000     0.537330000000    -0.372104   
O327     O      0.962120000000     0.130950000000     0.528780000000    -0.379588   
O328     O      0.507650000000     0.153330000000     0.962370000000    -0.381857   
O329     O      0.905280000000     0.063330000000     0.563880000000    -0.339826   
O330     O      0.993580000000     0.107660000000     0.637640000000    -0.527955   
O331     O      0.911240000000     0.483680000000     0.942830000000    -0.527457   
O332     O      0.996960000000     0.452940000000     0.855760000000    -0.343874   
O333     O      0.993150000000     0.493670000000     0.528210000000    -0.493832   
O334     O      0.991690000000     0.060500000000     0.971510000000    -0.632935   
O335     O      0.659170000000     0.135870000000     0.526200000000    -0.386861   
O336     O      0.616410000000     0.153630000000     0.955830000000    -0.383157   
O337     O      0.666220000000     0.429610000000     0.976990000000    -0.379613   
O338     O      0.622800000000     0.409000000000     0.545860000000    -0.382966   
O339     O      0.658370000000     0.042940000000     0.869710000000    -0.374556   
O340     O      0.610660000000     0.101160000000     0.868990000000    -0.370086   
O341     O      0.659560000000     0.023290000000     0.630350000000    -0.376118   
O342     O      0.612580000000     0.465010000000     0.637040000000    -0.372663   
O343     O      0.713620000000     0.078360000000     0.576690000000    -0.517598   
O344     O      0.615030000000     0.116030000000     0.636290000000    -0.355413   
O345     O      0.720080000000     0.494600000000     0.929240000000    -0.334833   
O346     O      0.623680000000     0.445260000000     0.870990000000    -0.536195   
O347     O      0.633430000000     0.064720000000     0.973150000000    -0.640612   
O348     O      0.635130000000     0.499450000000     0.530660000000    -0.496272   
O349     O      0.559240000000     0.101540000000     0.535210000000    -0.499176   
O350     O      0.566570000000     0.459910000000     0.967470000000    -0.628987   
O351     O      0.561900000000     0.034400000000     0.593400000000    -0.63417    
O352     O      0.564540000000     0.026100000000     0.908260000000    -0.491279   
O353     O      0.907570000000     0.294950000000     0.872250000000    -0.381756   
O354     O      0.857490000000     0.351150000000     0.880410000000    -0.380858   
O355     O      0.888570000000     0.286400000000     0.607800000000    -0.390332   
O356     O      0.858020000000     0.219510000000     0.609910000000    -0.376931   
O357     O      0.882250000000     0.397780000000     0.712220000000    -0.377493   
O358     O      0.850770000000     0.407400000000     0.791540000000    -0.371813   
O359     O      0.887650000000     0.170810000000     0.784060000000    -0.363955   
O360     O      0.858730000000     0.156850000000     0.704550000000    -0.369571   
O361     O      0.965410000000     0.251440000000     0.773610000000    -0.362558   
O362     O      0.912360000000     0.205550000000     0.871840000000    -0.5225     
O363     O      0.952660000000     0.328730000000     0.687270000000    -0.525927   
O364     O      0.863430000000     0.372700000000     0.611290000000    -0.333953   
O365     O      0.875640000000     0.319090000000     0.774760000000    -0.500307   
O366     O      0.878570000000     0.253500000000     0.711030000000    -0.627526   
O367     O      0.736140000000     0.161760000000     0.784590000000    -0.371161   
O368     O      0.762250000000     0.153850000000     0.702680000000    -0.378327   
O369     O      0.699830000000     0.379740000000     0.733370000000    -0.389613   
O370     O      0.744730000000     0.399940000000     0.801120000000    -0.377871   
O371     O      0.708270000000     0.275300000000     0.620620000000    -0.387569   
O372     O      0.756200000000     0.217740000000     0.611080000000    -0.373387   
O373     O      0.719590000000     0.277060000000     0.886160000000    -0.385704   
O374     O      0.758100000000     0.340490000000     0.888410000000    -0.37435    
O375     O      0.661140000000     0.224420000000     0.813200000000    -0.530357   
O376     O      0.756630000000     0.190580000000     0.887230000000    -0.342612   
O377     O      0.644680000000     0.303210000000     0.701970000000    -0.349967   
O378     O      0.722630000000     0.367890000000     0.630790000000    -0.528342   
O379     O      0.736610000000     0.242600000000     0.722470000000    -0.63411    
O380     O      0.734330000000     0.307110000000     0.786220000000    -0.504698   
O381     O      0.815340000000     0.210690000000     0.775840000000    -0.494811   
O382     O      0.797280000000     0.352430000000     0.720170000000    -0.640059   
O383     O      0.813320000000     0.272820000000     0.839460000000    -0.630115   
O384     O      0.799310000000     0.288940000000     0.658090000000    -0.503758   
Zr61     Zr     0.990880000000     0.063580000000     0.562200000000     1.38005    
Zr62     Zr     0.995420000000     0.491100000000     0.936890000000     1.36696    
Zr63     Zr     0.630290000000     0.069750000000     0.563420000000     1.38185    
Zr64     Zr     0.635030000000     0.495130000000     0.939730000000     1.37862    
Zr65     Zr     0.565390000000     0.464540000000     0.558810000000     1.37625    
Zr66     Zr     0.561760000000     0.095520000000     0.944380000000     1.3802     
Zr67     Zr     0.883790000000     0.247510000000     0.801500000000     1.36813    
Zr68     Zr     0.868010000000     0.325230000000     0.684760000000     1.3885     
Zr69     Zr     0.744980000000     0.235550000000     0.812490000000     1.38298    
Zr70     Zr     0.729230000000     0.314450000000     0.696400000000     1.39347    
Zr71     Zr     0.803690000000     0.344340000000     0.810230000000     1.3808     
Zr72     Zr     0.808260000000     0.217420000000     0.685600000000     1.37132    
C145     C      0.977550000000     0.977230000000     0.147360000000     0.405505   
C146     C      0.978570000000     0.578770000000     0.352610000000     0.400866   
C147     C      0.995360000000     0.890790000000     0.498090000000     0.405297   
C148     C      0.973130000000     0.657980000000     0.493780000000     0.40589    
C149     C      0.650020000000     0.660140000000     0.487730000000     0.412431   
C150     C      0.656510000000     0.903670000000     0.013740000000     0.410279   
C151     C      0.644430000000     0.578710000000     0.350570000000     0.407419   
C152     C      0.646110000000     0.989200000000     0.153110000000     0.401169   
C153     C      0.893550000000     0.829560000000     0.394360000000     0.408597   
C154     C      0.882790000000     0.749070000000     0.088860000000     0.411155   
C155     C      0.874810000000     0.920200000000     0.252560000000     0.408029   
C156     C      0.879530000000     0.645450000000     0.246210000000     0.405241   
C157     C      0.742180000000     0.639690000000     0.243500000000     0.408381   
C158     C      0.710320000000     0.905480000000     0.269750000000     0.413143   
C159     C      0.722570000000     0.742440000000     0.096090000000     0.413356   
C160     C      0.729420000000     0.812960000000     0.407210000000     0.40904    
C161     C      0.717830000000     0.704870000000     0.012630000000     0.0818159  
C162     C      0.710910000000     0.576220000000     0.289260000000     0.08162    
C163     C      0.647480000000     0.953050000000     0.237570000000     0.0759104  
C164     C      0.902210000000     0.700540000000     0.016740000000     0.0762195  
C165     C      0.965080000000     0.829220000000     0.448220000000     0.0818176  
C166     C      0.905900000000     0.584100000000     0.299800000000     0.0774747  
C167     C      0.722390000000     0.856980000000     0.485520000000     0.0757926  
C168     C      0.911470000000     0.982310000000     0.208800000000     0.0785098  
H385     H      0.963890000000     0.574540000000     0.458660000000     0.196242   
H386     H      0.569550000000     0.930780000000     0.456300000000     0.196708   
H387     H      0.660750000000     0.579230000000     0.459960000000     0.199696   
H388     H      0.561240000000     0.534130000000     0.130370000000     0.204346   
H389     H      0.515200000000     0.926740000000     0.362750000000     0.134322   
H390     H      0.600070000000     0.950790000000     0.345250000000     0.19839    
H391     H      0.731810000000     0.513090000000     0.457120000000     0.126017   
H392     H      0.735690000000     0.563590000000     0.054870000000     0.192261   
H393     H      0.610840000000     0.644670000000     0.121220000000     0.14429    
H394     H      0.979570000000     0.597880000000     0.169230000000     0.205954   
H395     H      0.896430000000     0.535470000000     0.049100000000     0.134978   
H396     H      0.892240000000     0.507480000000     0.453800000000     0.190672   
H397     H      0.724960000000     0.596910000000     0.103480000000     0.211027   
H398     H      0.508310000000     0.635310000000     0.136160000000     0.204526   
H399     H      0.896420000000     0.957220000000     0.433210000000     0.210188   
H400     H      0.640570000000     0.918580000000     0.370960000000     0.206388   
H401     H      0.905980000000     0.740960000000     0.195210000000     0.201734   
H402     H      0.793300000000     0.881920000000     0.210750000000     0.202067   
H403     H      0.710000000000     0.726300000000     0.210520000000     0.195566   
H404     H      0.815940000000     0.771490000000     0.376290000000     0.192449   
H405     H      0.836420000000     0.862070000000     0.091080000000     0.133763   
H406     H      0.748340000000     0.872400000000     0.107250000000     0.193551   
H407     H      0.637010000000     0.808130000000     0.238460000000     0.136787   
H408     H      0.642340000000     0.732730000000     0.284060000000     0.192355   
H409     H      0.791140000000     0.686660000000     0.389360000000     0.126985   
H410     H      0.890280000000     0.693660000000     0.395980000000     0.192757   
H411     H      0.977320000000     0.778190000000     0.288810000000     0.140426   
H412     H      0.971090000000     0.815500000000     0.160560000000     0.205796   
H413     H      0.646470000000     0.710800000000     0.342260000000     0.209831   
H414     H      0.945020000000     0.697020000000     0.372670000000     0.208187   
H415     H      0.968200000000     0.843410000000     0.215010000000     0.202065   
H416     H      0.695270000000     0.886110000000     0.129480000000     0.216693   
H417     H      0.671930000000     0.713540000000     0.447590000000     0.107221   
H418     H      0.672770000000     0.754460000000     0.040670000000     0.103266   
H419     H      0.733600000000     0.676100000000     0.030550000000     0.0364421  
H420     H      0.745800000000     0.720810000000     0.489980000000     0.0237865  
H421     H      0.730240000000     0.580990000000     0.209440000000     0.101954   
H422     H      0.654230000000     0.622520000000     0.292370000000     0.114979   
H423     H      0.705420000000     0.542140000000     0.280070000000     0.0211987  
H424     H      0.738610000000     0.578170000000     0.319260000000     0.0299591  
H425     H      0.697250000000     0.998140000000     0.207910000000     0.10209    
H426     H      0.692490000000     0.963120000000     0.303260000000     0.109146   
H427     H      0.619800000000     0.971770000000     0.257420000000     0.0162686  
H428     H      0.630240000000     0.924480000000     0.220880000000     0.0357652  
H429     H      0.923490000000     0.765740000000     0.026600000000     0.10399    
H430     H      0.956030000000     0.716180000000     0.461710000000     0.10035    
H431     H      0.894500000000     0.674060000000     0.043650000000     0.0429078  
H432     H      0.872700000000     0.702170000000     0.488970000000     0.0110995  
H433     H      0.988810000000     0.829460000000     0.026590000000     0.102482   
H434     H      0.905490000000     0.871990000000     0.453370000000     0.112548   
H435     H      0.990100000000     0.835970000000     0.416500000000     0.0181628  
H436     H      0.963860000000     0.794230000000     0.453690000000     0.0160385  
H437     H      0.886460000000     0.583630000000     0.219740000000     0.101826   
H438     H      0.966330000000     0.625130000000     0.298320000000     0.110418   
H439     H      0.881380000000     0.594110000000     0.330730000000     0.0230141  
H440     H      0.903630000000     0.549100000000     0.296550000000     0.0214991  
H441     H      0.684800000000     0.799310000000     0.467420000000     0.101074   
H442     H      0.674450000000     0.846390000000     0.047900000000     0.107936   
H443     H      0.752710000000     0.846650000000     0.009320000000     0.0155795  
H444     H      0.734180000000     0.884790000000     0.462600000000     0.0418575  
H445     H      0.964720000000     0.932590000000     0.204180000000     0.115594   
H446     H      0.888730000000     0.977720000000     0.287690000000     0.105681   
H447     H      0.920930000000     0.515280000000     0.219570000000     0.0202     
H448     H      0.883650000000     0.983880000000     0.178940000000     0.0288235  
N97      N      0.700480000000     0.734370000000     0.051240000000    -0.225942   
N98      N      0.679010000000     0.693460000000     0.478570000000    -0.22468    
N99      N      0.666980000000     0.594420000000     0.308760000000    -0.220796   
N100     N      0.726920000000     0.598690000000     0.243140000000    -0.224265   
N101     N      0.683780000000     0.941080000000     0.274830000000    -0.228687   
N102     N      0.668330000000     0.979500000000     0.197570000000    -0.223214   
N103     N      0.946190000000     0.693350000000     0.488710000000    -0.227658   
N104     N      0.905060000000     0.740910000000     0.044060000000    -0.226087   
N105     N      0.918350000000     0.844960000000     0.434660000000    -0.224421   
N106     N      0.981910000000     0.849350000000     0.495380000000    -0.225271   
N107     N      0.953840000000     0.596440000000     0.313370000000    -0.222467   
N108     N      0.891630000000     0.603730000000     0.251090000000    -0.22515    
N109     N      0.683350000000     0.868280000000     0.019380000000    -0.228229   
N110     N      0.708300000000     0.821680000000     0.452530000000    -0.225121   
N111     N      0.892990000000     0.960110000000     0.254100000000    -0.223907   
N112     N      0.953390000000     0.961260000000     0.188010000000    -0.218353   
O385     O      0.965060000000     0.513660000000     0.128900000000    -0.380126   
O386     O      0.511790000000     0.954890000000     0.129760000000    -0.372862   
O387     O      0.966400000000     0.541930000000     0.370730000000    -0.36742    
O388     O      0.512520000000     0.601140000000     0.370270000000    -0.37838    
O389     O      0.984760000000     0.915900000000     0.460590000000    -0.381775   
O390     O      0.519830000000     0.901880000000     0.037320000000    -0.371673   
O391     O      0.962120000000     0.630940000000     0.028770000000    -0.37903    
O392     O      0.507650000000     0.653330000000     0.462370000000    -0.381726   
O393     O      0.905280000000     0.563320000000     0.063880000000    -0.339973   
O394     O      0.993580000000     0.607660000000     0.137640000000    -0.527698   
O395     O      0.911240000000     0.983670000000     0.442830000000    -0.531191   
O396     O      0.996960000000     0.952940000000     0.355760000000    -0.344387   
O397     O      0.993150000000     0.993670000000     0.028210000000    -0.49499    
O398     O      0.991690000000     0.560500000000     0.471510000000    -0.634103   
O399     O      0.659170000000     0.635870000000     0.026200000000    -0.386505   
O400     O      0.616410000000     0.653630000000     0.455820000000    -0.383026   
O401     O      0.666220000000     0.929610000000     0.476990000000    -0.379019   
O402     O      0.622800000000     0.909000000000     0.045860000000    -0.382738   
O403     O      0.658370000000     0.542940000000     0.369710000000    -0.376491   
O404     O      0.610650000000     0.601160000000     0.368990000000    -0.370272   
O405     O      0.659560000000     0.523290000000     0.130350000000    -0.379673   
O406     O      0.612590000000     0.965000000000     0.137030000000    -0.372141   
O407     O      0.713620000000     0.578360000000     0.076690000000    -0.517523   
O408     O      0.615030000000     0.616030000000     0.136290000000    -0.355426   
O409     O      0.720080000000     0.994600000000     0.429230000000    -0.338051   
O410     O      0.623680000000     0.945260000000     0.370990000000    -0.536046   
O411     O      0.633430000000     0.564720000000     0.473150000000    -0.641866   
O412     O      0.635130000000     0.999450000000     0.030660000000    -0.497502   
O413     O      0.559240000000     0.601530000000     0.035210000000    -0.498871   
O414     O      0.566570000000     0.959910000000     0.467470000000    -0.628501   
O415     O      0.561900000000     0.534400000000     0.093400000000    -0.635314   
O416     O      0.564540000000     0.526100000000     0.408260000000    -0.494053   
O417     O      0.907570000000     0.794950000000     0.372250000000    -0.381775   
O418     O      0.857490000000     0.851140000000     0.380410000000    -0.381006   
O419     O      0.888570000000     0.786390000000     0.107800000000    -0.390361   
O420     O      0.858020000000     0.719510000000     0.109920000000    -0.376973   
O421     O      0.882250000000     0.897780000000     0.212220000000    -0.377572   
O422     O      0.850770000000     0.907410000000     0.291540000000    -0.371928   
O423     O      0.887650000000     0.670800000000     0.284060000000    -0.363985   
O424     O      0.858730000000     0.656850000000     0.204550000000    -0.369652   
O425     O      0.965410000000     0.751440000000     0.273610000000    -0.362563   
O426     O      0.912360000000     0.705550000000     0.371840000000    -0.522707   
O427     O      0.952660000000     0.828730000000     0.187270000000    -0.526022   
O428     O      0.863430000000     0.872700000000     0.111290000000    -0.334085   
O429     O      0.875640000000     0.819090000000     0.274760000000    -0.500281   
O430     O      0.878570000000     0.753500000000     0.211040000000    -0.627401   
O431     O      0.736140000000     0.661760000000     0.284590000000    -0.371181   
O432     O      0.762250000000     0.653850000000     0.202680000000    -0.378387   
O433     O      0.699830000000     0.879740000000     0.233370000000    -0.389695   
O434     O      0.744730000000     0.899930000000     0.301120000000    -0.378066   
O435     O      0.708270000000     0.775290000000     0.120620000000    -0.387622   
O436     O      0.756200000000     0.717740000000     0.111070000000    -0.37341    
O437     O      0.719590000000     0.777050000000     0.386160000000    -0.385565   
O438     O      0.758110000000     0.840490000000     0.388410000000    -0.374281   
O439     O      0.661140000000     0.724420000000     0.313210000000    -0.530347   
O440     O      0.756630000000     0.690580000000     0.387230000000    -0.342504   
O441     O      0.644680000000     0.803210000000     0.201970000000    -0.349988   
O442     O      0.722630000000     0.867880000000     0.130790000000    -0.528295   
O443     O      0.736610000000     0.742610000000     0.222460000000    -0.633966   
O444     O      0.734330000000     0.807110000000     0.286210000000    -0.504693   
O445     O      0.815340000000     0.710690000000     0.275830000000    -0.494797   
O446     O      0.797280000000     0.852430000000     0.220170000000    -0.640037   
O447     O      0.813320000000     0.772820000000     0.339460000000    -0.63005    
O448     O      0.799310000000     0.788940000000     0.158090000000    -0.503659   
Zr73     Zr     0.990880000000     0.563570000000     0.062200000000     1.37855    
Zr74     Zr     0.995420000000     0.991100000000     0.436890000000     1.36238    
Zr75     Zr     0.630300000000     0.569750000000     0.063420000000     1.38039    
Zr76     Zr     0.635030000000     0.995130000000     0.439730000000     1.37377    
Zr77     Zr     0.565390000000     0.964540000000     0.058810000000     1.37403    
Zr78     Zr     0.561760000000     0.595520000000     0.444380000000     1.38007    
Zr79     Zr     0.883800000000     0.747510000000     0.301500000000     1.36821    
Zr80     Zr     0.868010000000     0.825240000000     0.184760000000     1.38851    
Zr81     Zr     0.744980000000     0.735550000000     0.312490000000     1.38292    
Zr82     Zr     0.729220000000     0.814460000000     0.196400000000     1.39367    
Zr83     Zr     0.803690000000     0.844340000000     0.310230000000     1.38075    
Zr84     Zr     0.808260000000     0.717420000000     0.185600000000     1.37143    
C169     C      0.977550000000     0.977230000000     0.647360000000     0.405526   
C170     C      0.978570000000     0.578780000000     0.852610000000     0.400984   
C171     C      0.995360000000     0.890790000000     0.998090000000     0.405156   
C172     C      0.973130000000     0.657990000000     0.993770000000     0.405481   
C173     C      0.650020000000     0.660140000000     0.987730000000     0.412251   
C174     C      0.656510000000     0.903670000000     0.513740000000     0.409886   
C175     C      0.644430000000     0.578710000000     0.850570000000     0.407558   
C176     C      0.646100000000     0.989200000000     0.653110000000     0.401069   
C177     C      0.893550000000     0.829560000000     0.894360000000     0.40856    
C178     C      0.882790000000     0.749070000000     0.588860000000     0.411181   
C179     C      0.874810000000     0.920200000000     0.752570000000     0.408004   
C180     C      0.879530000000     0.645450000000     0.746210000000     0.405238   
C181     C      0.742180000000     0.639690000000     0.743500000000     0.408384   
C182     C      0.710310000000     0.905480000000     0.769750000000     0.4131     
C183     C      0.722570000000     0.742440000000     0.596090000000     0.413287   
C184     C      0.729420000000     0.812960000000     0.907210000000     0.409144   
C185     C      0.717830000000     0.704870000000     0.512620000000     0.0812531  
C186     C      0.710910000000     0.576220000000     0.789260000000     0.0816322  
C187     C      0.647480000000     0.953050000000     0.737570000000     0.0758601  
C188     C      0.902210000000     0.700540000000     0.516750000000     0.0755785  
C189     C      0.965080000000     0.829220000000     0.948220000000     0.0817885  
C190     C      0.905900000000     0.584100000000     0.799810000000     0.0774571  
C191     C      0.722390000000     0.856980000000     0.985520000000     0.0751761  
C192     C      0.911470000000     0.982300000000     0.708810000000     0.0786205  
H449     H      0.963890000000     0.574540000000     0.958660000000     0.196213   
H450     H      0.569550000000     0.930780000000     0.956300000000     0.196679   
H451     H      0.660750000000     0.579230000000     0.959960000000     0.199659   
H452     H      0.561240000000     0.534130000000     0.630370000000     0.204374   
H453     H      0.515190000000     0.926740000000     0.862750000000     0.134379   
H454     H      0.600070000000     0.950790000000     0.845250000000     0.198392   
H455     H      0.731810000000     0.513090000000     0.957120000000     0.126018   
H456     H      0.735680000000     0.563590000000     0.554870000000     0.192273   
H457     H      0.610840000000     0.644670000000     0.621220000000     0.144283   
H458     H      0.979570000000     0.597880000000     0.669230000000     0.205955   
H459     H      0.896430000000     0.535470000000     0.549100000000     0.134795   
H460     H      0.892240000000     0.507480000000     0.953800000000     0.190596   
H461     H      0.724960000000     0.596910000000     0.603480000000     0.21104    
H462     H      0.508310000000     0.635310000000     0.636160000000     0.204518   
H463     H      0.896420000000     0.957220000000     0.933210000000     0.210038   
H464     H      0.640570000000     0.918580000000     0.870960000000     0.206382   
H465     H      0.905980000000     0.740960000000     0.695210000000     0.201804   
H466     H      0.793300000000     0.881920000000     0.710750000000     0.202078   
H467     H      0.710000000000     0.726300000000     0.710520000000     0.195525   
H468     H      0.815940000000     0.771490000000     0.876290000000     0.192447   
H469     H      0.836420000000     0.862070000000     0.591090000000     0.133768   
H470     H      0.748340000000     0.872400000000     0.607250000000     0.193583   
H471     H      0.637010000000     0.808130000000     0.738460000000     0.136763   
H472     H      0.642340000000     0.732730000000     0.784060000000     0.192452   
H473     H      0.791130000000     0.686660000000     0.889360000000     0.127081   
H474     H      0.890280000000     0.693660000000     0.895990000000     0.192545   
H475     H      0.977310000000     0.778190000000     0.788810000000     0.140449   
H476     H      0.971090000000     0.815500000000     0.660560000000     0.205787   
H477     H      0.646470000000     0.710800000000     0.842260000000     0.209735   
H478     H      0.945020000000     0.697020000000     0.872670000000     0.208073   
H479     H      0.968200000000     0.843410000000     0.715010000000     0.202064   
H480     H      0.695270000000     0.886110000000     0.629480000000     0.216801   
H481     H      0.671930000000     0.713540000000     0.947590000000     0.107226   
H482     H      0.672770000000     0.754460000000     0.540670000000     0.103164   
H483     H      0.733600000000     0.676100000000     0.530550000000     0.0364968  
H484     H      0.745800000000     0.720810000000     0.989980000000     0.0234736  
H485     H      0.730240000000     0.580990000000     0.709440000000     0.101956   
H486     H      0.654230000000     0.622520000000     0.792370000000     0.114986   
H487     H      0.705420000000     0.542140000000     0.780070000000     0.0211932  
H488     H      0.738610000000     0.578170000000     0.819260000000     0.0299487  
H489     H      0.697250000000     0.998150000000     0.707910000000     0.102051   
H490     H      0.692490000000     0.963120000000     0.803260000000     0.109195   
H491     H      0.619800000000     0.971770000000     0.757420000000     0.0162859  
H492     H      0.630240000000     0.924480000000     0.720880000000     0.0357771  
H493     H      0.923490000000     0.765740000000     0.526600000000     0.10393    
H494     H      0.956030000000     0.716180000000     0.961710000000     0.100327   
H495     H      0.894500000000     0.674060000000     0.543650000000     0.0429922  
H496     H      0.872700000000     0.702170000000     0.988980000000     0.0107581  
H497     H      0.988810000000     0.829460000000     0.526590000000     0.102296   
H498     H      0.905490000000     0.871990000000     0.953370000000     0.112499   
H499     H      0.990100000000     0.835970000000     0.916500000000     0.0181616  
H500     H      0.963860000000     0.794230000000     0.953690000000     0.015971   
H501     H      0.886460000000     0.583630000000     0.719740000000     0.101826   
H502     H      0.966330000000     0.625130000000     0.798320000000     0.110421   
H503     H      0.881380000000     0.594110000000     0.830730000000     0.0229984  
H504     H      0.903630000000     0.549100000000     0.796550000000     0.0215131  
H505     H      0.684800000000     0.799310000000     0.967420000000     0.101021   
H506     H      0.674450000000     0.846390000000     0.547900000000     0.107903   
H507     H      0.752710000000     0.846650000000     0.509320000000     0.0152398  
H508     H      0.734180000000     0.884790000000     0.962600000000     0.0419358  
H509     H      0.964720000000     0.932590000000     0.704180000000     0.115594   
H510     H      0.888730000000     0.977710000000     0.787700000000     0.105675   
H511     H      0.920930000000     0.515280000000     0.719570000000     0.0202054  
H512     H      0.883650000000     0.983890000000     0.678940000000     0.0287901  
N113     N      0.700480000000     0.734370000000     0.551240000000    -0.225884   
N114     N      0.679000000000     0.693460000000     0.978570000000    -0.224886   
N115     N      0.666980000000     0.594420000000     0.808760000000    -0.220823   
N116     N      0.726920000000     0.598690000000     0.743140000000    -0.224266   
N117     N      0.683780000000     0.941080000000     0.774840000000    -0.228721   
N118     N      0.668330000000     0.979500000000     0.697570000000    -0.223132   
N119     N      0.946190000000     0.693350000000     0.988710000000    -0.227869   
N120     N      0.905060000000     0.740920000000     0.544060000000    -0.226083   
N121     N      0.918350000000     0.844960000000     0.934660000000    -0.224425   
N122     N      0.981910000000     0.849360000000     0.995380000000    -0.225463   
N123     N      0.953840000000     0.596440000000     0.813370000000    -0.222508   
N124     N      0.891630000000     0.603730000000     0.751090000000    -0.225136   
N125     N      0.683350000000     0.868280000000     0.519380000000    -0.228375   
N126     N      0.708300000000     0.821670000000     0.952530000000    -0.225128   
N127     N      0.892990000000     0.960110000000     0.754100000000    -0.223926   
N128     N      0.953390000000     0.961260000000     0.688010000000    -0.218375   
O449     O      0.965060000000     0.513660000000     0.628910000000    -0.380113   
O450     O      0.511790000000     0.954890000000     0.629760000000    -0.372825   
O451     O      0.966400000000     0.541930000000     0.870720000000    -0.367352   
O452     O      0.512520000000     0.601130000000     0.870270000000    -0.378485   
O453     O      0.984760000000     0.915900000000     0.960590000000    -0.381792   
O454     O      0.519830000000     0.901880000000     0.537330000000    -0.371794   
O455     O      0.962120000000     0.630950000000     0.528780000000    -0.379395   
O456     O      0.507650000000     0.653330000000     0.962370000000    -0.381716   
O457     O      0.905280000000     0.563330000000     0.563880000000    -0.339892   
O458     O      0.993580000000     0.607660000000     0.637640000000    -0.527665   
O459     O      0.911240000000     0.983680000000     0.942830000000    -0.531191   
O460     O      0.996960000000     0.952940000000     0.855760000000    -0.344365   
O461     O      0.993150000000     0.993670000000     0.528210000000    -0.495167   
O462     O      0.991690000000     0.560500000000     0.971510000000    -0.63422    
O463     O      0.659170000000     0.635870000000     0.526200000000    -0.386668   
O464     O      0.616410000000     0.653630000000     0.955830000000    -0.383078   
O465     O      0.666220000000     0.929610000000     0.976990000000    -0.379309   
O466     O      0.622800000000     0.909000000000     0.545860000000    -0.382654   
O467     O      0.658370000000     0.542950000000     0.869710000000    -0.376555   
O468     O      0.610650000000     0.601160000000     0.868990000000    -0.370292   
O469     O      0.659560000000     0.523290000000     0.630350000000    -0.379639   
O470     O      0.612580000000     0.965000000000     0.637040000000    -0.372112   
O471     O      0.713620000000     0.578360000000     0.576690000000    -0.517559   
O472     O      0.615030000000     0.616030000000     0.636290000000    -0.355376   
O473     O      0.720080000000     0.994600000000     0.929240000000    -0.338132   
O474     O      0.623680000000     0.945260000000     0.870990000000    -0.536028   
O475     O      0.633430000000     0.564720000000     0.973150000000    -0.641985   
O476     O      0.635130000000     0.999450000000     0.530660000000    -0.497675   
O477     O      0.559240000000     0.601540000000     0.535210000000    -0.498966   
O478     O      0.566570000000     0.959910000000     0.967470000000    -0.628613   
O479     O      0.561900000000     0.534400000000     0.593400000000    -0.635377   
O480     O      0.564540000000     0.526100000000     0.908260000000    -0.494008   
O481     O      0.907570000000     0.794950000000     0.872250000000    -0.381755   
O482     O      0.857490000000     0.851140000000     0.880410000000    -0.38101    
O483     O      0.888570000000     0.786390000000     0.607800000000    -0.390389   
O484     O      0.858020000000     0.719510000000     0.609910000000    -0.376986   
O485     O      0.882250000000     0.897780000000     0.712220000000    -0.377518   
O486     O      0.850770000000     0.907410000000     0.791540000000    -0.371927   
O487     O      0.887650000000     0.670800000000     0.784060000000    -0.363993   
O488     O      0.858730000000     0.656850000000     0.704550000000    -0.369658   
O489     O      0.965410000000     0.751440000000     0.773610000000    -0.362545   
O490     O      0.912360000000     0.705560000000     0.871840000000    -0.522454   
O491     O      0.952660000000     0.828730000000     0.687270000000    -0.526021   
O492     O      0.863430000000     0.872700000000     0.611290000000    -0.334161   
O493     O      0.875640000000     0.819080000000     0.774760000000    -0.500339   
O494     O      0.878570000000     0.753500000000     0.711030000000    -0.627447   
O495     O      0.736140000000     0.661760000000     0.784590000000    -0.371177   
O496     O      0.762250000000     0.653850000000     0.702680000000    -0.378383   
O497     O      0.699830000000     0.879740000000     0.733370000000    -0.389703   
O498     O      0.744730000000     0.899940000000     0.801120000000    -0.377914   
O499     O      0.708270000000     0.775290000000     0.620620000000    -0.387617   
O500     O      0.756200000000     0.717740000000     0.611080000000    -0.373423   
O501     O      0.719590000000     0.777060000000     0.886160000000    -0.385654   
O502     O      0.758100000000     0.840500000000     0.888410000000    -0.374292   
O503     O      0.661140000000     0.724420000000     0.813200000000    -0.53035    
O504     O      0.756630000000     0.690580000000     0.887230000000    -0.342638   
O505     O      0.644680000000     0.803200000000     0.701970000000    -0.349967   
O506     O      0.722630000000     0.867890000000     0.630790000000    -0.528408   
O507     O      0.736610000000     0.742610000000     0.722470000000    -0.633929   
O508     O      0.734330000000     0.807110000000     0.786220000000    -0.504684   
O509     O      0.815340000000     0.710690000000     0.775840000000    -0.494833   
O510     O      0.797280000000     0.852430000000     0.720170000000    -0.640028   
O511     O      0.813320000000     0.772820000000     0.839460000000    -0.630151   
O512     O      0.799310000000     0.788940000000     0.658090000000    -0.50366    
Zr85     Zr     0.990880000000     0.563570000000     0.562200000000     1.37827    
Zr86     Zr     0.995420000000     0.991100000000     0.936890000000     1.36218    
Zr87     Zr     0.630290000000     0.569740000000     0.563420000000     1.38016    
Zr88     Zr     0.635030000000     0.995130000000     0.939730000000     1.37362    
Zr89     Zr     0.565390000000     0.964550000000     0.558810000000     1.37378    
Zr90     Zr     0.561760000000     0.595520000000     0.944380000000     1.37991    
Zr91     Zr     0.883790000000     0.747510000000     0.801500000000     1.36824    
Zr92     Zr     0.868010000000     0.825240000000     0.684760000000     1.38852    
Zr93     Zr     0.744980000000     0.735550000000     0.812490000000     1.383      
Zr94     Zr     0.729220000000     0.814460000000     0.696400000000     1.39354    
Zr95     Zr     0.803690000000     0.844330000000     0.810230000000     1.38066    
Zr96     Zr     0.808260000000     0.717420000000     0.685600000000     1.37136    


