data_structure

_audit_creation_method RASPA-1.0
_audit_creation_date 2023-5-9
_audit_author_name 'Poobodin Mano'

_cell_length_a    39.5294
_cell_length_b    38.8516
_cell_length_c    40.3324
_cell_angle_alpha 90
_cell_angle_beta  90
_cell_angle_gamma 90
_cell_volume      61941.7

_symmetry_cell_setting          triclinic
_symmetry_space_group_name_Hall 'P 1'
_symmetry_space_group_name_H-M  'P 1'
_symmetry_Int_Tables_number     1

_symmetry_equiv_pos_as_xyz 'x,y,z'

loop_
_atom_site_label
_atom_site_type_symbol
_atom_site_fract_x
_atom_site_fract_y
_atom_site_fract_z
_atom_site_charge
C1       C      0.410050000000     0.015490000000     0.136260000000     0.387013   
C2       C      0.482770000000     0.080240000000     0.312190000000     0.39991    
C3       C      0.476560000000     0.078930000000     0.139780000000     0.398899   
C4       C      0.392180000000     0.007770000000     0.301590000000     0.402797   
C5       C      0.971390000000     0.410850000000     0.310180000000     0.395049   
C6       C      0.076980000000     0.499060000000     0.150940000000     0.39061    
C7       C      0.054830000000     0.491680000000     0.322580000000     0.388031   
C8       C      0.999380000000     0.413110000000     0.139440000000     0.394085   
C9       C      0.050120000000     0.144670000000     0.978070000000     0.388438   
C10      C      0.977060000000     0.338060000000     0.052870000000     0.397152   
C11      C      0.982470000000     0.160260000000     0.054280000000     0.397102   
C12      C      0.075600000000     0.325040000000     0.981670000000     0.395942   
C13      C      0.504770000000     0.333420000000     0.391670000000     0.395296   
C14      C      0.386010000000     0.172690000000     0.467040000000     0.398223   
C15      C      0.415300000000     0.347250000000     0.453550000000     0.395863   
C16      C      0.461240000000     0.160920000000     0.393130000000     0.399613   
C17      C      0.304340000000     0.083590000000     0.948310000000     0.395915   
C18      C      0.165560000000     0.976580000000     0.071310000000     0.393989   
C19      C      0.337540000000     0.012540000000     0.040310000000     0.38401    
C20      C      0.136310000000     0.052500000000     0.985200000000     0.391185   
C21      C      0.139390000000     0.465860000000     0.409290000000     0.391234   
C22      C      0.341300000000     0.422110000000     0.480810000000     0.393683   
C23      C      0.173280000000     0.385190000000     0.504480000000     0.394133   
C24      C      0.311010000000     0.481420000000     0.383930000000     0.404666   
C25      C      0.398470000000     0.407340000000     0.461520000000     0.0713301  
C26      C      0.357270000000     0.117760000000     0.951990000000     0.0741422  
C27      C      0.137150000000     0.339640000000     0.481860000000     0.078633   
C28      C      0.102750000000     0.107680000000     0.983680000000     0.0737646  
C29      C      0.363930000000     0.497590000000     0.355440000000     0.0757004  
C30      C      0.106560000000     0.475050000000     0.356350000000     0.0708748  
C31      C      0.109890000000     0.982510000000     0.100140000000     0.0705962  
C32      C      0.379000000000     0.496880000000     0.084960000000     0.0728105  
C33      C      0.965090000000     0.103530000000     0.366790000000     0.0714445  
C34      C      0.988470000000     0.388270000000     0.365300000000     0.0667738  
C35      C      0.496310000000     0.391200000000     0.081490000000     0.0696594  
C36      C      0.977130000000     0.102920000000     0.082160000000     0.0734319  
C37      C      0.410060000000     0.015480000000     0.636260000000     0.386804   
C38      C      0.482730000000     0.080280000000     0.812170000000     0.399932   
C39      C      0.476530000000     0.078910000000     0.639740000000     0.398713   
C40      C      0.392180000000     0.007840000000     0.801560000000     0.402736   
C41      C      0.971360000000     0.410890000000     0.810190000000     0.394916   
C42      C      0.076990000000     0.499050000000     0.650940000000     0.390522   
C43      C      0.054820000000     0.491740000000     0.822580000000     0.387959   
C44      C      0.999460000000     0.413120000000     0.639460000000     0.394036   
C45      C      0.050110000000     0.144600000000     0.478050000000     0.388599   
C46      C      0.977240000000     0.338040000000     0.552870000000     0.397336   
C47      C      0.982430000000     0.160230000000     0.554230000000     0.397177   
C48      C      0.075790000000     0.324950000000     0.481350000000     0.396378   
C49      C      0.504640000000     0.333440000000     0.891690000000     0.395239   
C50      C      0.386010000000     0.172540000000     0.967400000000     0.398203   
C51      C      0.415090000000     0.347150000000     0.953560000000     0.395635   
C52      C      0.461200000000     0.160900000000     0.893170000000     0.39947    
C53      C      0.304380000000     0.083400000000     0.448380000000     0.395939   
C54      C      0.165520000000     0.976430000000     0.571310000000     0.394083   
C55      C      0.337510000000     0.012380000000     0.540350000000     0.384198   
C56      C      0.136290000000     0.052370000000     0.485150000000     0.391393   
C57      C      0.139390000000     0.465980000000     0.909290000000     0.39115    
C58      C      0.341340000000     0.422310000000     0.980760000000     0.393688   
C59      C      0.173320000000     0.385340000000     0.004490000000     0.394904   
C60      C      0.311000000000     0.481570000000     0.883900000000     0.404561   
C61      C      0.398390000000     0.407330000000     0.961340000000     0.0714443  
C62      C      0.357260000000     0.117690000000     0.452080000000     0.0742191  
C63      C      0.136930000000     0.339840000000     0.982150000000     0.0783719  
C64      C      0.102720000000     0.107550000000     0.483610000000     0.0742752  
C65      C      0.363930000000     0.497720000000     0.855400000000     0.0758156  
C66      C      0.106560000000     0.475130000000     0.856360000000     0.0708492  
C67      C      0.109860000000     0.982430000000     0.600140000000     0.0706577  
C68      C      0.378950000000     0.496760000000     0.585040000000     0.0727768  
C69      C      0.965080000000     0.103530000000     0.866800000000     0.0713924  
C70      C      0.988390000000     0.388290000000     0.865320000000     0.0667827  
C71      C      0.496480000000     0.391190000000     0.581510000000     0.0696405  
C72      C      0.977040000000     0.102890000000     0.582120000000     0.073415   
C73      C      0.409500000000     0.514250000000     0.136310000000     0.386496   
C74      C      0.482110000000     0.580320000000     0.312040000000     0.400121   
C75      C      0.475870000000     0.578710000000     0.139630000000     0.398997   
C76      C      0.392050000000     0.506910000000     0.301600000000     0.402048   
C77      C      0.970880000000     0.910930000000     0.310140000000     0.394875   
C78      C      0.077040000000     0.998520000000     0.150830000000     0.388206   
C79      C      0.054930000000     0.991200000000     0.322510000000     0.38814    
C80      C      0.998870000000     0.913130000000     0.139410000000     0.394042   
C81      C      0.050200000000     0.644740000000     0.978020000000     0.388647   
C82      C      0.976730000000     0.838070000000     0.052760000000     0.397251   
C83      C      0.982220000000     0.660250000000     0.054360000000     0.397255   
C84      C      0.075470000000     0.825090000000     0.981430000000     0.395955   
C85      C      0.504320000000     0.833370000000     0.391540000000     0.394977   
C86      C      0.386040000000     0.672490000000     0.467080000000     0.398277   
C87      C      0.415050000000     0.847110000000     0.453570000000     0.395697   
C88      C      0.460930000000     0.660850000000     0.393230000000     0.399494   
C89      C      0.304500000000     0.583430000000     0.948100000000     0.396043   
C90      C      0.165670000000     0.477160000000     0.071480000000     0.393996   
C91      C      0.337900000000     0.512330000000     0.040120000000     0.383463   
C92      C      0.136480000000     0.552720000000     0.985390000000     0.391323   
C93      C      0.139540000000     0.965450000000     0.409070000000     0.391347   
C94      C      0.341400000000     0.922310000000     0.480800000000     0.393794   
C95      C      0.173380000000     0.884940000000     0.503900000000     0.394198   
C96      C      0.311190000000     0.982180000000     0.383880000000     0.403666   
C97      C      0.398400000000     0.907320000000     0.461310000000     0.0713285  
C98      C      0.357440000000     0.617560000000     0.951840000000     0.0741571  
C99      C      0.136980000000     0.839770000000     0.480970000000     0.0788352  
C100     C      0.102910000000     0.607890000000     0.983690000000     0.0736783  
C101     C      0.363900000000     0.999270000000     0.355570000000     0.073742   
C102     C      0.106690000000     0.974470000000     0.356140000000     0.0710084  
C103     C      0.109970000000     0.483370000000     0.100170000000     0.0717629  
C104     C      0.378060000000     0.998300000000     0.086010000000     0.0710024  
C105     C      0.964600000000     0.603520000000     0.366740000000     0.071499   
C106     C      0.987880000000     0.888230000000     0.365250000000     0.066673   
C107     C      0.495790000000     0.891260000000     0.081430000000     0.0696369  
C108     C      0.976700000000     0.602830000000     0.082080000000     0.0734061  
C109     C      0.409510000000     0.514240000000     0.636320000000     0.386472   
C110     C      0.482070000000     0.580360000000     0.812020000000     0.400077   
C111     C      0.475840000000     0.578700000000     0.639590000000     0.398872   
C112     C      0.392050000000     0.506990000000     0.801570000000     0.401899   
C113     C      0.970850000000     0.910970000000     0.810150000000     0.39495    
C114     C      0.077040000000     0.998500000000     0.650820000000     0.388223   
C115     C      0.054930000000     0.991260000000     0.822510000000     0.388045   
C116     C      0.998950000000     0.913130000000     0.639430000000     0.393887   
C117     C      0.050210000000     0.644680000000     0.477990000000     0.388578   
C118     C      0.976900000000     0.838050000000     0.552760000000     0.397334   
C119     C      0.982200000000     0.660220000000     0.554310000000     0.397258   
C120     C      0.075630000000     0.825020000000     0.481100000000     0.396472   
C121     C      0.504200000000     0.833380000000     0.891560000000     0.395228   
C122     C      0.386040000000     0.672350000000     0.967430000000     0.398094   
C123     C      0.414860000000     0.847010000000     0.953580000000     0.395931   
C124     C      0.460880000000     0.660830000000     0.893270000000     0.39942    
C125     C      0.304560000000     0.583230000000     0.448160000000     0.396179   
C126     C      0.165630000000     0.477030000000     0.571480000000     0.394235   
C127     C      0.337870000000     0.512150000000     0.540150000000     0.383379   
C128     C      0.136470000000     0.552600000000     0.485340000000     0.39144    
C129     C      0.139540000000     0.965570000000     0.909080000000     0.391276   
C130     C      0.341420000000     0.922500000000     0.980760000000     0.393757   
C131     C      0.173400000000     0.885100000000     0.003940000000     0.394623   
C132     C      0.311180000000     0.982320000000     0.883860000000     0.40378    
C133     C      0.398330000000     0.907300000000     0.961140000000     0.0713742  
C134     C      0.357440000000     0.617480000000     0.451920000000     0.0742786  
C135     C      0.136770000000     0.839940000000     0.981330000000     0.0785569  
C136     C      0.102890000000     0.607770000000     0.483610000000     0.0743412  
C137     C      0.363900000000     0.999380000000     0.855540000000     0.0737213  
C138     C      0.106690000000     0.974560000000     0.856150000000     0.0710314  
C139     C      0.109950000000     0.483290000000     0.600170000000     0.0718293  
C140     C      0.378000000000     0.998200000000     0.586090000000     0.0709832  
C141     C      0.964590000000     0.603530000000     0.866750000000     0.0714954  
C142     C      0.987810000000     0.888250000000     0.865260000000     0.0667397  
C143     C      0.495940000000     0.891250000000     0.581450000000     0.0696536  
C144     C      0.976630000000     0.602800000000     0.582030000000     0.0734007  
C145     C      0.910030000000     0.015380000000     0.136250000000     0.386827   
C146     C      0.983260000000     0.079620000000     0.312410000000     0.399795   
C147     C      0.976680000000     0.078880000000     0.139930000000     0.399066   
C148     C      0.892190000000     0.007330000000     0.301560000000     0.402912   
C149     C      0.471520000000     0.411380000000     0.310520000000     0.394741   
C150     C      0.577010000000     0.499100000000     0.151000000000     0.390611   
C151     C      0.554820000000     0.492190000000     0.322650000000     0.388109   
C152     C      0.499170000000     0.413130000000     0.139710000000     0.394703   
C153     C      0.550170000000     0.144700000000     0.977670000000     0.38853    
C154     C      0.477090000000     0.337900000000     0.052850000000     0.397346   
C155     C      0.482540000000     0.160060000000     0.054030000000     0.396967   
C156     C      0.575540000000     0.325080000000     0.981440000000     0.396015   
C157     C      0.004810000000     0.333310000000     0.391750000000     0.396231   
C158     C      0.886000000000     0.172720000000     0.467040000000     0.398229   
C159     C      0.915420000000     0.347280000000     0.453490000000     0.395599   
C160     C      0.961790000000     0.160730000000     0.393260000000     0.399591   
C161     C      0.804390000000     0.083540000000     0.948300000000     0.395922   
C162     C      0.665540000000     0.976590000000     0.071310000000     0.393967   
C163     C      0.837530000000     0.012480000000     0.040300000000     0.384213   
C164     C      0.636330000000     0.052580000000     0.985130000000     0.391515   
C165     C      0.639320000000     0.466040000000     0.409300000000     0.39122    
C166     C      0.841230000000     0.422010000000     0.480750000000     0.393787   
C167     C      0.673190000000     0.385220000000     0.504410000000     0.394148   
C168     C      0.811000000000     0.481200000000     0.383950000000     0.404719   
C169     C      0.898470000000     0.407320000000     0.461550000000     0.0713638  
C170     C      0.857300000000     0.117740000000     0.952060000000     0.0740449  
C171     C      0.637080000000     0.339730000000     0.481660000000     0.078614   
C172     C      0.602800000000     0.107750000000     0.983420000000     0.073832   
C173     C      0.863970000000     0.497140000000     0.355420000000     0.075865   
C174     C      0.606510000000     0.475390000000     0.356390000000     0.0708113  
C175     C      0.609890000000     0.982510000000     0.100190000000     0.0706596  
C176     C      0.878980000000     0.496800000000     0.084940000000     0.0727858  
C177     C      0.463970000000     0.103860000000     0.366430000000     0.0719158  
C178     C      0.489480000000     0.388850000000     0.365340000000     0.0680535  
C179     C      0.996450000000     0.391400000000     0.081220000000     0.0686826  
C180     C      0.476690000000     0.102810000000     0.081900000000     0.0733652  
C181     C      0.910040000000     0.015360000000     0.636260000000     0.386991   
C182     C      0.983220000000     0.079660000000     0.812390000000     0.399877   
C183     C      0.976640000000     0.078870000000     0.639900000000     0.398992   
C184     C      0.892190000000     0.007390000000     0.801530000000     0.402838   
C185     C      0.471480000000     0.411420000000     0.810530000000     0.394572   
C186     C      0.577020000000     0.499090000000     0.651000000000     0.390591   
C187     C      0.554820000000     0.492250000000     0.822650000000     0.388      
C188     C      0.499240000000     0.413130000000     0.639730000000     0.394656   
C189     C      0.550160000000     0.144630000000     0.477650000000     0.388517   
C190     C      0.477260000000     0.337880000000     0.552850000000     0.397287   
C191     C      0.482500000000     0.160040000000     0.553980000000     0.397034   
C192     C      0.575720000000     0.325000000000     0.481130000000     0.396353   
C193     C      0.004690000000     0.333320000000     0.891770000000     0.396175   
C194     C      0.886000000000     0.172580000000     0.967400000000     0.398227   
C195     C      0.915210000000     0.347180000000     0.953500000000     0.395666   
C196     C      0.961750000000     0.160710000000     0.893310000000     0.399543   
C197     C      0.804420000000     0.083360000000     0.448370000000     0.395971   
C198     C      0.665510000000     0.976440000000     0.571310000000     0.394159   
C199     C      0.837500000000     0.012320000000     0.540340000000     0.38423    
C200     C      0.636310000000     0.052440000000     0.485080000000     0.391494   
C201     C      0.639320000000     0.466160000000     0.909300000000     0.391086   
C202     C      0.841260000000     0.422200000000     0.980720000000     0.393659   
C203     C      0.673220000000     0.385380000000     0.004420000000     0.394894   
C204     C      0.810990000000     0.481340000000     0.883920000000     0.404547   
C205     C      0.898400000000     0.407310000000     0.961360000000     0.0713782  
C206     C      0.857280000000     0.117680000000     0.452150000000     0.0742843  
C207     C      0.636850000000     0.339930000000     0.981950000000     0.0783944  
C208     C      0.602770000000     0.107630000000     0.483350000000     0.0742845  
C209     C      0.863970000000     0.497260000000     0.855390000000     0.0758336  
C210     C      0.606500000000     0.475480000000     0.856390000000     0.070817   
C211     C      0.609860000000     0.982430000000     0.600180000000     0.0706059  
C212     C      0.878920000000     0.496690000000     0.585030000000     0.072807   
C213     C      0.463960000000     0.103860000000     0.866430000000     0.0719239  
C214     C      0.489380000000     0.388870000000     0.865360000000     0.0681007  
C215     C      0.996630000000     0.391380000000     0.581240000000     0.0686926  
C216     C      0.476600000000     0.102780000000     0.581850000000     0.0733326  
C217     C      0.909470000000     0.514140000000     0.136300000000     0.38659    
C218     C      0.982630000000     0.579690000000     0.312270000000     0.399806   
C219     C      0.976010000000     0.578680000000     0.139790000000     0.399279   
C220     C      0.892050000000     0.506450000000     0.301570000000     0.402016   
C221     C      0.471010000000     0.911440000000     0.310470000000     0.394496   
C222     C      0.577060000000     0.998570000000     0.150900000000     0.388128   
C223     C      0.554920000000     0.991710000000     0.322580000000     0.388103   
C224     C      0.498670000000     0.913160000000     0.139670000000     0.394892   
C225     C      0.550250000000     0.644770000000     0.977630000000     0.388563   
C226     C      0.476770000000     0.837920000000     0.052750000000     0.397244   
C227     C      0.482270000000     0.660050000000     0.054130000000     0.397132   
C228     C      0.575400000000     0.825130000000     0.981210000000     0.3962     
C229     C      0.004360000000     0.833270000000     0.391630000000     0.396184   
C230     C      0.886040000000     0.672520000000     0.467060000000     0.398213   
C231     C      0.915170000000     0.847140000000     0.453500000000     0.3958     
C232     C      0.961480000000     0.660670000000     0.393350000000     0.399484   
C233     C      0.804550000000     0.583380000000     0.948090000000     0.396146   
C234     C      0.665660000000     0.477160000000     0.071480000000     0.394278   
C235     C      0.837890000000     0.512270000000     0.040110000000     0.383488   
C236     C      0.636500000000     0.552790000000     0.985310000000     0.39136    
C237     C      0.639470000000     0.965630000000     0.409090000000     0.39133    
C238     C      0.841320000000     0.922210000000     0.480750000000     0.393685   
C239     C      0.673280000000     0.884970000000     0.503840000000     0.394192   
C240     C      0.811170000000     0.981970000000     0.383910000000     0.403916   
C241     C      0.898400000000     0.907300000000     0.461340000000     0.0713126  
C242     C      0.857470000000     0.617550000000     0.951900000000     0.0740233  
C243     C      0.636900000000     0.839860000000     0.480780000000     0.0787972  
C244     C      0.602960000000     0.607960000000     0.983430000000     0.0736612  
C245     C      0.863940000000     0.998830000000     0.355550000000     0.0738138  
C246     C      0.606640000000     0.974820000000     0.356180000000     0.0709664  
C247     C      0.609980000000     0.483350000000     0.100220000000     0.0717999  
C248     C      0.878040000000     0.998230000000     0.086000000000     0.0711677  
C249     C      0.463460000000     0.603860000000     0.366380000000     0.0720068  
C250     C      0.488880000000     0.888800000000     0.365270000000     0.0681076  
C251     C      0.995910000000     0.891460000000     0.081170000000     0.0686343  
C252     C      0.476230000000     0.602710000000     0.081810000000     0.0734512  
C253     C      0.909480000000     0.514130000000     0.636310000000     0.386653   
C254     C      0.982590000000     0.579730000000     0.812250000000     0.399826   
C255     C      0.975980000000     0.578670000000     0.639760000000     0.399244   
C256     C      0.892050000000     0.506520000000     0.801540000000     0.401896   
C257     C      0.470990000000     0.911480000000     0.810480000000     0.394775   
C258     C      0.577070000000     0.998550000000     0.650890000000     0.388248   
C259     C      0.554920000000     0.991760000000     0.822580000000     0.388198   
C260     C      0.498740000000     0.913160000000     0.639690000000     0.394717   
C261     C      0.550250000000     0.644710000000     0.477600000000     0.388612   
C262     C      0.476940000000     0.837900000000     0.552740000000     0.397391   
C263     C      0.482240000000     0.660030000000     0.554080000000     0.397044   
C264     C      0.575570000000     0.825060000000     0.480890000000     0.396567   
C265     C      0.004260000000     0.833280000000     0.891650000000     0.395967   
C266     C      0.886030000000     0.672390000000     0.967410000000     0.398047   
C267     C      0.914980000000     0.847050000000     0.953510000000     0.395704   
C268     C      0.961440000000     0.660650000000     0.893390000000     0.399527   
C269     C      0.804600000000     0.583180000000     0.448150000000     0.396001   
C270     C      0.665620000000     0.477030000000     0.571480000000     0.394189   
C271     C      0.837860000000     0.512100000000     0.540140000000     0.383676   
C272     C      0.636490000000     0.552670000000     0.485260000000     0.391375   
C273     C      0.639470000000     0.965750000000     0.909090000000     0.391336   
C274     C      0.841350000000     0.922390000000     0.980710000000     0.393689   
C275     C      0.673300000000     0.885140000000     0.003880000000     0.394799   
C276     C      0.811170000000     0.982100000000     0.883880000000     0.403686   
C277     C      0.898340000000     0.907290000000     0.961170000000     0.0712849  
C278     C      0.857460000000     0.617470000000     0.451990000000     0.0742951  
C279     C      0.636700000000     0.840030000000     0.981140000000     0.0785598  
C280     C      0.602940000000     0.607840000000     0.483360000000     0.0743803  
C281     C      0.863940000000     0.998930000000     0.855530000000     0.0737487  
C282     C      0.606630000000     0.974900000000     0.856180000000     0.0709234  
C283     C      0.609950000000     0.483280000000     0.600220000000     0.071837   
C284     C      0.877980000000     0.998120000000     0.586080000000     0.0709936  
C285     C      0.463440000000     0.603860000000     0.866390000000     0.0719176  
C286     C      0.488800000000     0.888820000000     0.865290000000     0.0680684  
C287     C      0.996070000000     0.891440000000     0.581190000000     0.0687597  
C288     C      0.476150000000     0.602680000000     0.581760000000     0.0733889  
H1       H      0.429550000000     0.052990000000     0.266730000000     0.203722   
H2       H      0.042070000000     0.049280000000     0.182490000000     0.203931   
H3       H      0.027820000000     0.441340000000     0.277630000000     0.209781   
H4       H      0.435420000000     0.444000000000     0.169460000000     0.201017   
H5       H      0.049760000000     0.103040000000     0.232360000000     0.129933   
H6       H      0.099920000000     0.055450000000     0.243310000000     0.188693   
H7       H      0.089650000000     0.436990000000     0.211550000000     0.149256   
H8       H      0.045640000000     0.386870000000     0.236990000000     0.199416   
H9       H      0.418460000000     0.387830000000     0.222090000000     0.135137   
H10      H      0.369150000000     0.443710000000     0.185580000000     0.193499   
H11      H      0.355190000000     0.039040000000     0.214660000000     0.142582   
H12      H      0.425400000000     0.112130000000     0.231110000000     0.190548   
H13      H      0.015310000000     0.356870000000     0.235340000000     0.205974   
H14      H      0.366370000000     0.436370000000     0.226390000000     0.197958   
H15      H      0.458590000000     0.138610000000     0.234810000000     0.206014   
H16      H      0.124000000000     0.020160000000     0.246570000000     0.207378   
H17      H      0.034790000000     0.288940000000     0.028930000000     0.205517   
H18      H      0.417960000000     0.204810000000     0.020500000000     0.203196   
H19      H      0.445040000000     0.300510000000     0.415160000000     0.204157   
H20      H      0.031160000000     0.186550000000     0.426680000000     0.205043   
H21      H      0.409920000000     0.256220000000     0.072790000000     0.130307   
H22      H      0.363290000000     0.263400000000     0.023530000000     0.185987   
H23      H      0.389960000000     0.258060000000     0.400380000000     0.134558   
H24      H      0.439830000000     0.269480000000     0.355130000000     0.1874     
H25      H      0.056750000000     0.238000000000     0.376350000000     0.131563   
H26      H      0.102430000000     0.221190000000     0.424940000000     0.187354   
H27      H      0.074060000000     0.212310000000     0.042090000000     0.149066   
H28      H      0.033130000000     0.254860000000     0.087070000000     0.195559   
H29      H      0.470990000000     0.251150000000     0.333280000000     0.205947   
H30      H      0.125020000000     0.232590000000     0.458290000000     0.204342   
H31      H      0.998700000000     0.261110000000     0.110470000000     0.206545   
H32      H      0.346440000000     0.285500000000     0.991960000000     0.203116   
H33      H      0.188420000000     0.035460000000     0.028220000000     0.207949   
H34      H      0.304890000000     0.452760000000     0.026740000000     0.211128   
H35      H      0.194750000000     0.415390000000     0.442860000000     0.209497   
H36      H      0.267610000000     0.036490000000     0.410140000000     0.205042   
H37      H      0.271120000000     0.448910000000     0.093430000000     0.128297   
H38      H      0.272050000000     0.376260000000     0.048830000000     0.18875    
H39      H      0.278620000000     0.372000000000     0.437960000000     0.146264   
H40      H      0.202220000000     0.409620000000     0.375910000000     0.200855   
H41      H      0.214330000000     0.026260000000     0.362320000000     0.126252   
H42      H      0.202220000000     0.087700000000     0.402230000000     0.187317   
H43      H      0.248170000000     0.104500000000     0.011230000000     0.148563   
H44      H      0.221790000000     0.056500000000     0.083240000000     0.198549   
H45      H      0.244380000000     0.406280000000     0.377660000000     0.208973   
H46      H      0.201040000000     0.118570000000     0.431190000000     0.203704   
H47      H      0.261040000000     0.067330000000     0.071670000000     0.203825   
H48      H      0.272460000000     0.348340000000     0.017210000000     0.200212   
H49      H      0.371190000000     0.384610000000     0.001440000000     0.104      
H50      H      0.375750000000     0.370740000000     0.429110000000     0.102944   
H51      H      0.394990000000     0.429080000000     0.443910000000     0.0365365  
H52      H      0.422860000000     0.410570000000     0.974570000000     0.0382113  
H53      H      0.310380000000     0.131750000000     0.428430000000     0.102524   
H54      H      0.334900000000     0.164320000000     0.970900000000     0.104691   
H55      H      0.364820000000     0.098850000000     0.971330000000     0.0395627  
H56      H      0.375310000000     0.115400000000     0.431050000000     0.0353118  
H57      H      0.094940000000     0.374390000000     0.986150000000     0.119892   
H58      H      0.166680000000     0.337920000000     0.025640000000     0.103074   
H59      H      0.141250000000     0.311320000000     0.482290000000     0.0251284  
H60      H      0.146730000000     0.349550000000     0.457710000000     0.0175701  
H61      H      0.087170000000     0.057330000000     0.501340000000     0.107765   
H62      H      0.051930000000     0.092320000000     0.972320000000     0.109826   
H63      H      0.111410000000     0.123390000000     0.005080000000     0.0308763  
H64      H      0.117800000000     0.115470000000     0.461630000000     0.0309878  
H65      H      0.344450000000     0.025740000000     0.312930000000     0.104861   
H66      H      0.323010000000     0.466800000000     0.336210000000     0.107402   
H67      H      0.385010000000     0.479300000000     0.360210000000     0.0382069  
H68      H      0.365080000000     0.020410000000     0.374120000000     0.0356951  
H69      H      0.088420000000     0.456090000000     0.403760000000     0.106987   
H70      H      0.059370000000     0.995190000000     0.373050000000     0.109857   
H71      H      0.126010000000     0.994110000000     0.349560000000     0.0366905  
H72      H      0.110290000000     0.452690000000     0.339560000000     0.0296368  
H73      H      0.125580000000     0.013780000000     0.141110000000     0.101995   
H74      H      0.158300000000     0.469900000000     0.121450000000     0.106018   
H75      H      0.094600000000     0.459390000000     0.100060000000     0.0349117  
H76      H      0.102450000000     0.998520000000     0.078480000000     0.0359936  
H77      H      0.387490000000     0.028080000000     0.042740000000     0.11173    
H78      H      0.367350000000     0.039690000000     0.118580000000     0.110652   
H79      H      0.359100000000     0.478200000000     0.092460000000     0.0209872  
H80      H      0.402280000000     0.482180000000     0.078660000000     0.0279222  
H81      H      0.998270000000     0.126490000000     0.330980000000     0.106494   
H82      H      0.437350000000     0.148250000000     0.349460000000     0.103672   
H83      H      0.442910000000     0.085020000000     0.364230000000     0.0337096  
H84      H      0.981290000000     0.096690000000     0.388340000000     0.0371051  
H85      H      0.461580000000     0.362380000000     0.327410000000     0.1025     
H86      H      0.021610000000     0.349610000000     0.346090000000     0.103479   
H87      H      0.004990000000     0.411420000000     0.366010000000     0.0364694  
H88      H      0.471490000000     0.391030000000     0.386440000000     0.0369981  
H89      H      0.015570000000     0.365130000000     0.124090000000     0.104467   
H90      H      0.455390000000     0.358250000000     0.094780000000     0.104428   
H91      H      0.483920000000     0.416220000000     0.075930000000     0.037798   
H92      H      0.519020000000     0.388360000000     0.065450000000     0.0339477  
H93      H      0.451730000000     0.122900000000     0.124780000000     0.107607   
H94      H      0.007820000000     0.145480000000     0.096390000000     0.107577   
H95      H      0.996110000000     0.082520000000     0.076970000000     0.0365191  
H96      H      0.454520000000     0.099170000000     0.065300000000     0.0333293  
H97      H      0.429550000000     0.053020000000     0.766690000000     0.203829   
H98      H      0.042070000000     0.049290000000     0.682460000000     0.203965   
H99      H      0.027820000000     0.441370000000     0.777640000000     0.209717   
H100     H      0.435440000000     0.444000000000     0.669450000000     0.200861   
H101     H      0.049750000000     0.103070000000     0.732380000000     0.130021   
H102     H      0.099910000000     0.055500000000     0.743260000000     0.188627   
H103     H      0.089650000000     0.437000000000     0.711580000000     0.149225   
H104     H      0.045640000000     0.386890000000     0.737020000000     0.199479   
H105     H      0.418470000000     0.387850000000     0.722060000000     0.13496    
H106     H      0.369170000000     0.443710000000     0.685550000000     0.193449   
H107     H      0.355150000000     0.038990000000     0.714600000000     0.142625   
H108     H      0.425440000000     0.112200000000     0.731130000000     0.190442   
H109     H      0.015300000000     0.356900000000     0.735410000000     0.205914   
H110     H      0.366380000000     0.436380000000     0.726370000000     0.197767   
H111     H      0.458660000000     0.138670000000     0.734670000000     0.206228   
H112     H      0.124000000000     0.020210000000     0.746570000000     0.207135   
H113     H      0.034930000000     0.288890000000     0.528900000000     0.205453   
H114     H      0.417950000000     0.204870000000     0.520420000000     0.202887   
H115     H      0.444900000000     0.300460000000     0.915190000000     0.204086   
H116     H      0.031140000000     0.186600000000     0.926700000000     0.205075   
H117     H      0.409980000000     0.256250000000     0.572740000000     0.130112   
H118     H      0.363250000000     0.263000000000     0.523430000000     0.185938   
H119     H      0.390020000000     0.258030000000     0.900350000000     0.134522   
H120     H      0.439800000000     0.269520000000     0.855120000000     0.187435   
H121     H      0.056660000000     0.238110000000     0.876330000000     0.131689   
H122     H      0.102310000000     0.221250000000     0.924910000000     0.187058   
H123     H      0.074160000000     0.212160000000     0.542020000000     0.149167   
H124     H      0.033200000000     0.254780000000     0.587050000000     0.195809   
H125     H      0.470900000000     0.251050000000     0.833300000000     0.205918   
H126     H      0.124920000000     0.232960000000     0.958150000000     0.204165   
H127     H      0.998780000000     0.261030000000     0.610450000000     0.206486   
H128     H      0.346850000000     0.286070000000     0.492270000000     0.203545   
H129     H      0.188390000000     0.035310000000     0.528230000000     0.207743   
H130     H      0.304860000000     0.452580000000     0.526770000000     0.211012   
H131     H      0.194770000000     0.415530000000     0.942850000000     0.209315   
H132     H      0.267600000000     0.036650000000     0.910110000000     0.204939   
H133     H      0.271080000000     0.448750000000     0.593450000000     0.128211   
H134     H      0.271990000000     0.376100000000     0.548870000000     0.188761   
H135     H      0.278670000000     0.372160000000     0.937940000000     0.146255   
H136     H      0.202220000000     0.409770000000     0.875890000000     0.200748   
H137     H      0.214290000000     0.026410000000     0.862310000000     0.126204   
H138     H      0.202200000000     0.087830000000     0.902210000000     0.187398   
H139     H      0.248160000000     0.104350000000     0.511250000000     0.148408   
H140     H      0.221750000000     0.056330000000     0.583260000000     0.198562   
H141     H      0.244380000000     0.406440000000     0.877630000000     0.2089     
H142     H      0.200970000000     0.118690000000     0.931160000000     0.203843   
H143     H      0.261000000000     0.067170000000     0.571700000000     0.20379    
H144     H      0.272410000000     0.348180000000     0.517250000000     0.200105   
H145     H      0.371160000000     0.384370000000     0.501470000000     0.103389   
H146     H      0.375450000000     0.370590000000     0.929210000000     0.102812   
H147     H      0.394880000000     0.428970000000     0.943620000000     0.0363769  
H148     H      0.422860000000     0.410560000000     0.474890000000     0.0382748  
H149     H      0.310380000000     0.132020000000     0.928510000000     0.102391   
H150     H      0.334870000000     0.164490000000     0.470510000000     0.104746   
H151     H      0.364610000000     0.099160000000     0.471830000000     0.0392176  
H152     H      0.375550000000     0.115740000000     0.931120000000     0.0349587  
H153     H      0.095210000000     0.374330000000     0.485520000000     0.120005   
H154     H      0.166480000000     0.337750000000     0.525640000000     0.102995   
H155     H      0.141000000000     0.311520000000     0.982860000000     0.0252098  
H156     H      0.146250000000     0.349350000000     0.957770000000     0.0173903  
H157     H      0.087210000000     0.057470000000     0.001460000000     0.108167   
H158     H      0.051870000000     0.092240000000     0.472340000000     0.109885   
H159     H      0.111430000000     0.123250000000     0.505000000000     0.0303517  
H160     H      0.117860000000     0.115600000000     0.961730000000     0.0310734  
H161     H      0.344470000000     0.025840000000     0.812880000000     0.104824   
H162     H      0.323000000000     0.466930000000     0.836190000000     0.107425   
H163     H      0.385000000000     0.479420000000     0.860200000000     0.0381763  
H164     H      0.365080000000     0.020520000000     0.874080000000     0.0356941  
H165     H      0.088420000000     0.456200000000     0.903780000000     0.106941   
H166     H      0.059360000000     0.995260000000     0.873040000000     0.109931   
H167     H      0.126000000000     0.994200000000     0.849550000000     0.0366885  
H168     H      0.110290000000     0.452770000000     0.839580000000     0.0296359  
H169     H      0.125600000000     0.013700000000     0.641090000000     0.101957   
H170     H      0.158250000000     0.469750000000     0.621450000000     0.105975   
H171     H      0.094540000000     0.459350000000     0.600060000000     0.0348493  
H172     H      0.102450000000     0.998440000000     0.578470000000     0.0359062  
H173     H      0.387460000000     0.027900000000     0.542780000000     0.111703   
H174     H      0.367350000000     0.039670000000     0.618580000000     0.110514   
H175     H      0.359000000000     0.478150000000     0.592600000000     0.0210239  
H176     H      0.402190000000     0.482000000000     0.578780000000     0.0278225  
H177     H      0.998170000000     0.126560000000     0.830930000000     0.106477   
H178     H      0.437260000000     0.148230000000     0.849530000000     0.103694   
H179     H      0.442920000000     0.084990000000     0.864260000000     0.0337214  
H180     H      0.981340000000     0.096710000000     0.888320000000     0.0370743  
H181     H      0.461480000000     0.362430000000     0.827410000000     0.102431   
H182     H      0.021500000000     0.349610000000     0.846120000000     0.103514   
H183     H      0.004920000000     0.411440000000     0.866040000000     0.0364443  
H184     H      0.471390000000     0.391060000000     0.886450000000     0.0369315  
H185     H      0.015710000000     0.365150000000     0.624140000000     0.10444    
H186     H      0.455550000000     0.358240000000     0.594760000000     0.104521   
H187     H      0.484100000000     0.416200000000     0.575910000000     0.0377508  
H188     H      0.519210000000     0.388330000000     0.565500000000     0.0338564  
H189     H      0.451650000000     0.122870000000     0.624740000000     0.107546   
H190     H      0.007790000000     0.145420000000     0.596320000000     0.107594   
H191     H      0.996000000000     0.082470000000     0.576910000000     0.0364645  
H192     H      0.454420000000     0.099170000000     0.565270000000     0.0332049  
H193     H      0.428950000000     0.552470000000     0.266660000000     0.204053   
H194     H      0.041490000000     0.549660000000     0.182420000000     0.203953   
H195     H      0.027450000000     0.940970000000     0.277570000000     0.209592   
H196     H      0.435070000000     0.944590000000     0.169380000000     0.201082   
H197     H      0.048680000000     0.603640000000     0.232050000000     0.129832   
H198     H      0.099170000000     0.556540000000     0.243360000000     0.188701   
H199     H      0.089250000000     0.936100000000     0.211490000000     0.149313   
H200     H      0.044610000000     0.886220000000     0.237210000000     0.199507   
H201     H      0.417570000000     0.888510000000     0.222190000000     0.135143   
H202     H      0.368800000000     0.944890000000     0.185440000000     0.193389   
H203     H      0.354800000000     0.537900000000     0.214750000000     0.142602   
H204     H      0.424140000000     0.611370000000     0.230810000000     0.190558   
H205     H      0.014050000000     0.856520000000     0.234860000000     0.206024   
H206     H      0.365900000000     0.937530000000     0.226240000000     0.197751   
H207     H      0.457010000000     0.638200000000     0.234790000000     0.206255   
H208     H      0.123610000000     0.521520000000     0.246700000000     0.207005   
H209     H      0.034730000000     0.789010000000     0.028810000000     0.20572    
H210     H      0.417990000000     0.704720000000     0.020570000000     0.202981   
H211     H      0.444790000000     0.800370000000     0.415160000000     0.204196   
H212     H      0.031110000000     0.686540000000     0.426610000000     0.205043   
H213     H      0.409930000000     0.755950000000     0.072850000000     0.129989   
H214     H      0.363280000000     0.763240000000     0.023660000000     0.18588    
H215     H      0.389820000000     0.757870000000     0.400450000000     0.13453    
H216     H      0.439790000000     0.769140000000     0.354870000000     0.187635   
H217     H      0.056560000000     0.738120000000     0.376230000000     0.131672   
H218     H      0.102340000000     0.721360000000     0.424790000000     0.18732    
H219     H      0.074230000000     0.712300000000     0.041880000000     0.148962   
H220     H      0.033480000000     0.754430000000     0.086670000000     0.195865   
H221     H      0.471100000000     0.750890000000     0.333160000000     0.206047   
H222     H      0.124940000000     0.732590000000     0.458180000000     0.204287   
H223     H      0.999300000000     0.761740000000     0.110130000000     0.20648    
H224     H      0.346270000000     0.785160000000     0.992060000000     0.203103   
H225     H      0.188700000000     0.535680000000     0.028330000000     0.207663   
H226     H      0.304830000000     0.952830000000     0.026740000000     0.210693   
H227     H      0.194980000000     0.915350000000     0.442540000000     0.209611   
H228     H      0.267640000000     0.536300000000     0.410070000000     0.204701   
H229     H      0.270970000000     0.948810000000     0.093330000000     0.128226   
H230     H      0.272030000000     0.876210000000     0.048660000000     0.188918   
H231     H      0.279010000000     0.872110000000     0.437810000000     0.146247   
H232     H      0.202870000000     0.909550000000     0.375680000000     0.200665   
H233     H      0.214320000000     0.526170000000     0.362410000000     0.12612    
H234     H      0.202330000000     0.587720000000     0.402250000000     0.187424   
H235     H      0.248510000000     0.604580000000     0.011110000000     0.148534   
H236     H      0.222400000000     0.556890000000     0.083170000000     0.198454   
H237     H      0.245060000000     0.906560000000     0.377400000000     0.208848   
H238     H      0.201270000000     0.618620000000     0.431180000000     0.203792   
H239     H      0.261750000000     0.567400000000     0.071650000000     0.203787   
H240     H      0.272640000000     0.848340000000     0.017000000000     0.200309   
H241     H      0.371350000000     0.884930000000     0.001550000000     0.104019   
H242     H      0.375350000000     0.870530000000     0.429290000000     0.102875   
H243     H      0.394850000000     0.928930000000     0.443560000000     0.0363611  
H244     H      0.422910000000     0.910570000000     0.974180000000     0.038334   
H245     H      0.310650000000     0.631520000000     0.428130000000     0.102598   
H246     H      0.334950000000     0.664000000000     0.970880000000     0.104729   
H247     H      0.364980000000     0.598590000000     0.971130000000     0.0395383  
H248     H      0.375540000000     0.615310000000     0.430930000000     0.035297   
H249     H      0.094810000000     0.874440000000     0.985930000000     0.119874   
H250     H      0.166890000000     0.837400000000     0.024570000000     0.103162   
H251     H      0.141090000000     0.811450000000     0.480920000000     0.0250549  
H252     H      0.146280000000     0.850080000000     0.456870000000     0.0175702  
H253     H      0.087400000000     0.557660000000     0.501640000000     0.107545   
H254     H      0.052140000000     0.592390000000     0.972250000000     0.109628   
H255     H      0.111520000000     0.623720000000     0.005020000000     0.03079    
H256     H      0.117990000000     0.615590000000     0.461610000000     0.0309072  
H257     H      0.343890000000     0.523620000000     0.312800000000     0.105054   
H258     H      0.323320000000     0.968170000000     0.336020000000     0.107396   
H259     H      0.385050000000     0.981160000000     0.360650000000     0.0389056  
H260     H      0.365360000000     0.518600000000     0.374100000000     0.0352294  
H261     H      0.088650000000     0.955300000000     0.403480000000     0.106919   
H262     H      0.059200000000     0.495780000000     0.373110000000     0.110066   
H263     H      0.125880000000     0.494690000000     0.349790000000     0.0369181  
H264     H      0.110350000000     0.952140000000     0.339310000000     0.0295449  
H265     H      0.125290000000     0.515120000000     0.140980000000     0.101713   
H266     H      0.158230000000     0.968820000000     0.121230000000     0.105514   
H267     H      0.094210000000     0.958750000000     0.099980000000     0.034701   
H268     H      0.102540000000     0.499450000000     0.078570000000     0.0357072  
H269     H      0.387980000000     0.527350000000     0.042150000000     0.111062   
H270     H      0.365300000000     0.536150000000     0.119010000000     0.111293   
H271     H      0.357530000000     0.981040000000     0.094900000000     0.0218144  
H272     H      0.400170000000     0.981850000000     0.079680000000     0.0271821  
H273     H      0.997400000000     0.626690000000     0.330710000000     0.106435   
H274     H      0.436620000000     0.648250000000     0.349760000000     0.103615   
H275     H      0.442410000000     0.585000000000     0.364250000000     0.0335582  
H276     H      0.980950000000     0.596640000000     0.388170000000     0.0369947  
H277     H      0.460840000000     0.862480000000     0.327340000000     0.102427   
H278     H      0.020910000000     0.849550000000     0.345870000000     0.103411   
H279     H      0.004410000000     0.911380000000     0.366020000000     0.0365834  
H280     H      0.470900000000     0.890890000000     0.386390000000     0.0369148  
H281     H      0.014790000000     0.865060000000     0.124060000000     0.104444   
H282     H      0.454830000000     0.858290000000     0.094530000000     0.104526   
H283     H      0.483380000000     0.916280000000     0.075900000000     0.0377244  
H284     H      0.518540000000     0.888480000000     0.065440000000     0.0339323  
H285     H      0.450700000000     0.622450000000     0.124520000000     0.107634   
H286     H      0.007090000000     0.645470000000     0.096750000000     0.107611   
H287     H      0.995800000000     0.582520000000     0.076970000000     0.0362369  
H288     H      0.454230000000     0.599070000000     0.064990000000     0.0332483  
H289     H      0.428950000000     0.552510000000     0.766630000000     0.203868   
H290     H      0.041500000000     0.549670000000     0.682390000000     0.204004   
H291     H      0.027460000000     0.941000000000     0.777580000000     0.20947    
H292     H      0.435080000000     0.944580000000     0.669370000000     0.200692   
H293     H      0.048680000000     0.603670000000     0.732080000000     0.129755   
H294     H      0.099170000000     0.556590000000     0.743320000000     0.188491   
H295     H      0.089250000000     0.936110000000     0.711520000000     0.149129   
H296     H      0.044630000000     0.886240000000     0.737230000000     0.199301   
H297     H      0.417590000000     0.888510000000     0.722170000000     0.135208   
H298     H      0.368830000000     0.944890000000     0.685420000000     0.193368   
H299     H      0.354760000000     0.537850000000     0.714690000000     0.142633   
H300     H      0.424190000000     0.611440000000     0.730820000000     0.190809   
H301     H      0.014050000000     0.856540000000     0.734930000000     0.205874   
H302     H      0.365910000000     0.937540000000     0.726220000000     0.197672   
H303     H      0.457080000000     0.638270000000     0.734650000000     0.20631    
H304     H      0.123610000000     0.521570000000     0.746700000000     0.207012   
H305     H      0.034860000000     0.788970000000     0.528780000000     0.205616   
H306     H      0.417990000000     0.704760000000     0.520480000000     0.202873   
H307     H      0.444660000000     0.800320000000     0.915180000000     0.203829   
H308     H      0.031080000000     0.686580000000     0.926640000000     0.205089   
H309     H      0.410000000000     0.755970000000     0.572800000000     0.129995   
H310     H      0.363240000000     0.762840000000     0.523570000000     0.185845   
H311     H      0.389880000000     0.757840000000     0.900420000000     0.134605   
H312     H      0.439770000000     0.769170000000     0.854850000000     0.187717   
H313     H      0.056480000000     0.738230000000     0.876210000000     0.131705   
H314     H      0.102220000000     0.721410000000     0.924760000000     0.18714    
H315     H      0.074340000000     0.712170000000     0.541810000000     0.149067   
H316     H      0.033560000000     0.754360000000     0.586640000000     0.195945   
H317     H      0.471020000000     0.750790000000     0.833170000000     0.205836   
H318     H      0.124840000000     0.732930000000     0.958050000000     0.204286   
H319     H      0.999390000000     0.761660000000     0.610110000000     0.20661    
H320     H      0.346670000000     0.785700000000     0.492360000000     0.203498   
H321     H      0.188680000000     0.535540000000     0.528330000000     0.207599   
H322     H      0.304800000000     0.952660000000     0.526770000000     0.210584   
H323     H      0.194990000000     0.915490000000     0.942540000000     0.209354   
H324     H      0.267620000000     0.536470000000     0.910040000000     0.204653   
H325     H      0.270930000000     0.948640000000     0.593350000000     0.128044   
H326     H      0.271970000000     0.876060000000     0.548700000000     0.188778   
H327     H      0.279050000000     0.872270000000     0.937790000000     0.14623    
H328     H      0.202860000000     0.909690000000     0.875670000000     0.200494   
H329     H      0.214280000000     0.526330000000     0.862410000000     0.126169   
H330     H      0.202300000000     0.587850000000     0.902230000000     0.18729    
H331     H      0.248520000000     0.604440000000     0.511110000000     0.14839    
H332     H      0.222370000000     0.556730000000     0.583190000000     0.198416   
H333     H      0.245050000000     0.906710000000     0.877380000000     0.208967   
H334     H      0.201190000000     0.618740000000     0.931160000000     0.203866   
H335     H      0.261720000000     0.567240000000     0.571680000000     0.203732   
H336     H      0.272590000000     0.848190000000     0.517040000000     0.200256   
H337     H      0.371340000000     0.884720000000     0.501580000000     0.103507   
H338     H      0.375070000000     0.870400000000     0.929390000000     0.102813   
H339     H      0.394740000000     0.928830000000     0.943300000000     0.0362537  
H340     H      0.422910000000     0.910570000000     0.474460000000     0.0383805  
H341     H      0.310630000000     0.631810000000     0.928210000000     0.102419   
H342     H      0.334920000000     0.664150000000     0.470510000000     0.10473    
H343     H      0.364780000000     0.598880000000     0.471620000000     0.0391821  
H344     H      0.375770000000     0.615660000000     0.931000000000     0.0349624  
H345     H      0.095050000000     0.874390000000     0.485280000000     0.120014   
H346     H      0.166720000000     0.837180000000     0.524470000000     0.103073   
H347     H      0.140860000000     0.811610000000     0.981610000000     0.025145   
H348     H      0.145850000000     0.849800000000     0.956990000000     0.0174006  
H349     H      0.087430000000     0.557780000000     0.001760000000     0.107955   
H350     H      0.052100000000     0.592330000000     0.472250000000     0.109774   
H351     H      0.111560000000     0.623600000000     0.504930000000     0.0302332  
H352     H      0.118020000000     0.615710000000     0.961710000000     0.0310396  
H353     H      0.343900000000     0.523730000000     0.812750000000     0.104997   
H354     H      0.323310000000     0.968290000000     0.835990000000     0.107433   
H355     H      0.385040000000     0.981270000000     0.860640000000     0.0389068  
H356     H      0.365350000000     0.518740000000     0.874060000000     0.0352027  
H357     H      0.088660000000     0.955410000000     0.903500000000     0.106898   
H358     H      0.059190000000     0.495850000000     0.873110000000     0.110046   
H359     H      0.125870000000     0.494780000000     0.849790000000     0.0369365  
H360     H      0.110350000000     0.952210000000     0.839330000000     0.0295419  
H361     H      0.125310000000     0.515050000000     0.640960000000     0.101688   
H362     H      0.158180000000     0.968670000000     0.621220000000     0.105556   
H363     H      0.094150000000     0.958700000000     0.599990000000     0.0346459  
H364     H      0.102530000000     0.499380000000     0.578560000000     0.0356294  
H365     H      0.387960000000     0.527140000000     0.542180000000     0.110987   
H366     H      0.365310000000     0.536130000000     0.619020000000     0.111232   
H367     H      0.357450000000     0.981000000000     0.595020000000     0.0218194  
H368     H      0.400080000000     0.981700000000     0.579790000000     0.0271043  
H369     H      0.997290000000     0.626760000000     0.830670000000     0.106463   
H370     H      0.436530000000     0.648230000000     0.849840000000     0.103704   
H371     H      0.442420000000     0.584970000000     0.864280000000     0.0335838  
H372     H      0.980990000000     0.596650000000     0.888140000000     0.0369393  
H373     H      0.460760000000     0.862530000000     0.827340000000     0.102457   
H374     H      0.020810000000     0.849550000000     0.845890000000     0.103501   
H375     H      0.004350000000     0.911380000000     0.866050000000     0.036533   
H376     H      0.470810000000     0.890920000000     0.886400000000     0.0368812  
H377     H      0.014930000000     0.865080000000     0.624110000000     0.104475   
H378     H      0.454980000000     0.858270000000     0.594530000000     0.104451   
H379     H      0.483550000000     0.916260000000     0.575890000000     0.037671   
H380     H      0.518720000000     0.888450000000     0.565490000000     0.0338333  
H381     H      0.450650000000     0.622420000000     0.624480000000     0.107655   
H382     H      0.007070000000     0.645410000000     0.596690000000     0.107571   
H383     H      0.995700000000     0.582470000000     0.576900000000     0.036189   
H384     H      0.454140000000     0.599070000000     0.564960000000     0.0331208  
H385     H      0.929540000000     0.052560000000     0.266850000000     0.203932   
H386     H      0.542120000000     0.049440000000     0.182400000000     0.204077   
H387     H      0.527810000000     0.441780000000     0.277830000000     0.20969    
H388     H      0.935430000000     0.443830000000     0.169250000000     0.201007   
H389     H      0.549810000000     0.103320000000     0.232500000000     0.130043   
H390     H      0.599910000000     0.055800000000     0.243190000000     0.188703   
H391     H      0.589630000000     0.437220000000     0.211790000000     0.149177   
H392     H      0.545680000000     0.387320000000     0.237230000000     0.199472   
H393     H      0.918520000000     0.387490000000     0.221710000000     0.135079   
H394     H      0.869160000000     0.443430000000     0.185430000000     0.193434   
H395     H      0.855130000000     0.038670000000     0.214690000000     0.142665   
H396     H      0.925060000000     0.111440000000     0.230910000000     0.190776   
H397     H      0.515400000000     0.357270000000     0.235690000000     0.205791   
H398     H      0.866390000000     0.436010000000     0.226240000000     0.197751   
H399     H      0.958050000000     0.137970000000     0.235790000000     0.205963   
H400     H      0.623970000000     0.020530000000     0.246670000000     0.207497   
H401     H      0.534900000000     0.288870000000     0.028680000000     0.205471   
H402     H      0.917800000000     0.204930000000     0.020550000000     0.203149   
H403     H      0.945240000000     0.300450000000     0.415180000000     0.204288   
H404     H      0.531050000000     0.186620000000     0.426300000000     0.204975   
H405     H      0.909610000000     0.256470000000     0.072740000000     0.130337   
H406     H      0.863140000000     0.263470000000     0.023310000000     0.186105   
H407     H      0.890190000000     0.258010000000     0.400270000000     0.134478   
H408     H      0.940020000000     0.269240000000     0.355300000000     0.187411   
H409     H      0.556390000000     0.238020000000     0.375850000000     0.131522   
H410     H      0.602200000000     0.221240000000     0.424350000000     0.187073   
H411     H      0.574240000000     0.212440000000     0.041680000000     0.148849   
H412     H      0.533580000000     0.254530000000     0.086650000000     0.195739   
H413     H      0.971150000000     0.250810000000     0.333480000000     0.205635   
H414     H      0.624920000000     0.232780000000     0.457580000000     0.204292   
H415     H      0.499290000000     0.260910000000     0.110200000000     0.207311   
H416     H      0.846430000000     0.285610000000     0.991700000000     0.203359   
H417     H      0.688430000000     0.035500000000     0.028220000000     0.207678   
H418     H      0.804860000000     0.452700000000     0.026710000000     0.211073   
H419     H      0.694670000000     0.415420000000     0.442840000000     0.209491   
H420     H      0.767640000000     0.036460000000     0.410120000000     0.204778   
H421     H      0.771090000000     0.448890000000     0.093420000000     0.128371   
H422     H      0.771940000000     0.376270000000     0.048850000000     0.188676   
H423     H      0.778490000000     0.372010000000     0.437890000000     0.146403   
H424     H      0.702010000000     0.409730000000     0.375840000000     0.200768   
H425     H      0.714330000000     0.026300000000     0.362330000000     0.126153   
H426     H      0.702290000000     0.087780000000     0.402250000000     0.187507   
H427     H      0.748230000000     0.104510000000     0.011210000000     0.148578   
H428     H      0.721800000000     0.056480000000     0.083250000000     0.198616   
H429     H      0.744150000000     0.406240000000     0.377660000000     0.208911   
H430     H      0.701150000000     0.118620000000     0.431220000000     0.204007   
H431     H      0.761050000000     0.067310000000     0.071660000000     0.203714   
H432     H      0.772340000000     0.348330000000     0.017240000000     0.200141   
H433     H      0.871070000000     0.384390000000     0.001290000000     0.103861   
H434     H      0.875950000000     0.370790000000     0.428950000000     0.102946   
H435     H      0.895020000000     0.429110000000     0.443990000000     0.0364989  
H436     H      0.922810000000     0.410550000000     0.974700000000     0.0380933  
H437     H      0.810440000000     0.131680000000     0.428390000000     0.102497   
H438     H      0.834880000000     0.164390000000     0.970740000000     0.104663   
H439     H      0.864770000000     0.098910000000     0.971490000000     0.0395198  
H440     H      0.875390000000     0.115300000000     0.431180000000     0.0353435  
H441     H      0.594840000000     0.374450000000     0.985980000000     0.119805   
H442     H      0.666530000000     0.337920000000     0.025480000000     0.103077   
H443     H      0.641190000000     0.311420000000     0.482030000000     0.025141   
H444     H      0.646670000000     0.349710000000     0.457550000000     0.0175192  
H445     H      0.587170000000     0.057470000000     0.501200000000     0.107709   
H446     H      0.552040000000     0.092350000000     0.971840000000     0.109642   
H447     H      0.611370000000     0.123530000000     0.004810000000     0.0308796  
H448     H      0.617930000000     0.115480000000     0.461410000000     0.0309925  
H449     H      0.844460000000     0.025290000000     0.312920000000     0.104937   
H450     H      0.823000000000     0.466350000000     0.336300000000     0.107358   
H451     H      0.885010000000     0.478780000000     0.360160000000     0.0380783  
H452     H      0.865210000000     0.019960000000     0.374110000000     0.0357409  
H453     H      0.588320000000     0.456430000000     0.403780000000     0.106868   
H454     H      0.559420000000     0.995760000000     0.373110000000     0.109742   
H455     H      0.626030000000     0.994380000000     0.349610000000     0.0366345  
H456     H      0.610140000000     0.453040000000     0.339570000000     0.029593   
H457     H      0.625640000000     0.013730000000     0.141180000000     0.10194    
H458     H      0.658310000000     0.469830000000     0.121440000000     0.106008   
H459     H      0.594600000000     0.459390000000     0.100110000000     0.0348382  
H460     H      0.602440000000     0.998540000000     0.078550000000     0.0359365  
H461     H      0.887480000000     0.028020000000     0.042740000000     0.111714   
H462     H      0.867300000000     0.039570000000     0.118610000000     0.110639   
H463     H      0.859070000000     0.478120000000     0.092430000000     0.0209778  
H464     H      0.902260000000     0.482110000000     0.078650000000     0.027877   
H465     H      0.497590000000     0.127130000000     0.331070000000     0.106749   
H466     H      0.939140000000     0.147970000000     0.349000000000     0.103554   
H467     H      0.944180000000     0.084480000000     0.364850000000     0.0340348  
H468     H      0.479930000000     0.096460000000     0.387980000000     0.037242   
H469     H      0.961330000000     0.361790000000     0.326860000000     0.102106   
H470     H      0.522540000000     0.349940000000     0.346360000000     0.103117   
H471     H      0.506400000000     0.411720000000     0.365710000000     0.0349054  
H472     H      0.970080000000     0.389880000000     0.386120000000     0.0365479  
H473     H      0.514540000000     0.364820000000     0.124630000000     0.104232   
H474     H      0.954910000000     0.359060000000     0.094370000000     0.10434    
H475     H      0.984160000000     0.416450000000     0.075600000000     0.037737   
H476     H      0.019080000000     0.388730000000     0.065040000000     0.034687   
H477     H      0.952480000000     0.123260000000     0.125110000000     0.107623   
H478     H      0.507770000000     0.145090000000     0.096160000000     0.10711    
H479     H      0.495580000000     0.082320000000     0.076720000000     0.0369037  
H480     H      0.954930000000     0.099380000000     0.065580000000     0.0336445  
H481     H      0.929540000000     0.052590000000     0.766820000000     0.203915   
H482     H      0.542130000000     0.049450000000     0.682370000000     0.203961   
H483     H      0.527810000000     0.441820000000     0.777840000000     0.20967    
H484     H      0.935440000000     0.443830000000     0.669250000000     0.200983   
H485     H      0.549800000000     0.103350000000     0.732530000000     0.13004    
H486     H      0.599900000000     0.055850000000     0.743140000000     0.188663   
H487     H      0.589630000000     0.437230000000     0.711820000000     0.149173   
H488     H      0.545690000000     0.387340000000     0.737250000000     0.199333   
H489     H      0.918540000000     0.387500000000     0.721690000000     0.135044   
H490     H      0.869190000000     0.443430000000     0.685410000000     0.193673   
H491     H      0.855090000000     0.038620000000     0.714640000000     0.142562   
H492     H      0.925090000000     0.111510000000     0.730920000000     0.190654   
H493     H      0.515390000000     0.357300000000     0.735780000000     0.205834   
H494     H      0.866400000000     0.436020000000     0.726210000000     0.19781    
H495     H      0.958110000000     0.138030000000     0.735660000000     0.205836   
H496     H      0.623970000000     0.020580000000     0.746670000000     0.207435   
H497     H      0.535040000000     0.288830000000     0.528650000000     0.205288   
H498     H      0.917800000000     0.204990000000     0.520470000000     0.20297    
H499     H      0.945090000000     0.300400000000     0.915200000000     0.203851   
H500     H      0.531030000000     0.186670000000     0.926320000000     0.205084   
H501     H      0.909680000000     0.256500000000     0.572680000000     0.130179   
H502     H      0.863100000000     0.263070000000     0.523210000000     0.186282   
H503     H      0.890250000000     0.257980000000     0.900240000000     0.13455    
H504     H      0.940000000000     0.269280000000     0.855280000000     0.187299   
H505     H      0.556290000000     0.238130000000     0.875830000000     0.131716   
H506     H      0.602080000000     0.221300000000     0.924320000000     0.187066   
H507     H      0.574340000000     0.212280000000     0.541620000000     0.14894    
H508     H      0.533650000000     0.254450000000     0.586630000000     0.195998   
H509     H      0.971070000000     0.250700000000     0.833500000000     0.205603   
H510     H      0.624820000000     0.233150000000     0.957430000000     0.204328   
H511     H      0.499360000000     0.260840000000     0.610180000000     0.207292   
H512     H      0.846840000000     0.286170000000     0.492020000000     0.203692   
H513     H      0.688400000000     0.035350000000     0.528220000000     0.207768   
H514     H      0.804830000000     0.452520000000     0.526750000000     0.210809   
H515     H      0.694690000000     0.415570000000     0.942840000000     0.209539   
H516     H      0.767620000000     0.036610000000     0.910090000000     0.204804   
H517     H      0.771050000000     0.448730000000     0.593440000000     0.128289   
H518     H      0.771890000000     0.376120000000     0.548880000000     0.188641   
H519     H      0.778540000000     0.372180000000     0.937870000000     0.146377   
H520     H      0.702010000000     0.409890000000     0.875820000000     0.20088    
H521     H      0.714300000000     0.026440000000     0.862320000000     0.12625    
H522     H      0.702270000000     0.087900000000     0.902230000000     0.187635   
H523     H      0.748220000000     0.104360000000     0.511220000000     0.148446   
H524     H      0.721760000000     0.056320000000     0.583280000000     0.19847    
H525     H      0.744150000000     0.406400000000     0.877630000000     0.209019   
H526     H      0.701090000000     0.118750000000     0.931190000000     0.203917   
H527     H      0.761010000000     0.067150000000     0.571690000000     0.203616   
H528     H      0.772290000000     0.348170000000     0.517280000000     0.200114   
H529     H      0.871050000000     0.384160000000     0.501310000000     0.103392   
H530     H      0.875650000000     0.370640000000     0.929040000000     0.102838   
H531     H      0.894910000000     0.429000000000     0.943700000000     0.0363802  
H532     H      0.922810000000     0.410540000000     0.475010000000     0.038133   
H533     H      0.810450000000     0.131950000000     0.928460000000     0.102413   
H534     H      0.834850000000     0.164560000000     0.470350000000     0.104682   
H535     H      0.864560000000     0.099220000000     0.471980000000     0.0391368  
H536     H      0.875640000000     0.115640000000     0.931260000000     0.0350382  
H537     H      0.595110000000     0.374380000000     0.485360000000     0.119935   
H538     H      0.666340000000     0.337750000000     0.525480000000     0.10301    
H539     H      0.640940000000     0.311610000000     0.982600000000     0.0252115  
H540     H      0.646190000000     0.349510000000     0.957600000000     0.0173452  
H541     H      0.587220000000     0.057610000000     0.001330000000     0.108144   
H542     H      0.551980000000     0.092280000000     0.471860000000     0.109788   
H543     H      0.611400000000     0.123390000000     0.504730000000     0.0303758  
H544     H      0.617990000000     0.115610000000     0.961500000000     0.031078   
H545     H      0.844470000000     0.025380000000     0.812880000000     0.104876   
H546     H      0.822990000000     0.466480000000     0.836270000000     0.107353   
H547     H      0.885000000000     0.478900000000     0.860140000000     0.0380767  
H548     H      0.865220000000     0.020070000000     0.874070000000     0.0357513  
H549     H      0.588320000000     0.456540000000     0.903800000000     0.106806   
H550     H      0.559410000000     0.995830000000     0.873110000000     0.109736   
H551     H      0.626020000000     0.994470000000     0.849600000000     0.0366595  
H552     H      0.610140000000     0.453120000000     0.839590000000     0.0295811  
H553     H      0.625660000000     0.013650000000     0.641150000000     0.10196    
H554     H      0.658270000000     0.469680000000     0.621440000000     0.106001   
H555     H      0.594540000000     0.459340000000     0.600120000000     0.0348082  
H556     H      0.602440000000     0.998450000000     0.578530000000     0.0358727  
H557     H      0.887450000000     0.027840000000     0.542780000000     0.111698   
H558     H      0.867310000000     0.039550000000     0.618610000000     0.11064    
H559     H      0.858980000000     0.478070000000     0.592570000000     0.0209743  
H560     H      0.902170000000     0.481930000000     0.578760000000     0.0277768  
H561     H      0.497480000000     0.127200000000     0.831020000000     0.106736   
H562     H      0.939060000000     0.147950000000     0.849070000000     0.103584   
H563     H      0.944200000000     0.084450000000     0.864890000000     0.0340496  
H564     H      0.479970000000     0.096480000000     0.887960000000     0.0371925  
H565     H      0.961240000000     0.361840000000     0.826860000000     0.102132   
H566     H      0.522420000000     0.349940000000     0.846390000000     0.103158   
H567     H      0.506310000000     0.411730000000     0.865750000000     0.0348693  
H568     H      0.969990000000     0.389910000000     0.886130000000     0.0365181  
H569     H      0.514680000000     0.364830000000     0.624680000000     0.10413    
H570     H      0.955080000000     0.359050000000     0.594360000000     0.104451   
H571     H      0.984350000000     0.416430000000     0.575590000000     0.0377     
H572     H      0.019280000000     0.388690000000     0.565090000000     0.034573   
H573     H      0.952410000000     0.123230000000     0.625080000000     0.107607   
H574     H      0.507720000000     0.145040000000     0.596100000000     0.107092   
H575     H      0.495470000000     0.082280000000     0.576660000000     0.036854   
H576     H      0.954830000000     0.099380000000     0.565550000000     0.0335092  
H577     H      0.928930000000     0.552040000000     0.266800000000     0.203739   
H578     H      0.541550000000     0.549820000000     0.182320000000     0.203869   
H579     H      0.527440000000     0.941400000000     0.277760000000     0.209567   
H580     H      0.935070000000     0.944410000000     0.169180000000     0.200809   
H581     H      0.548730000000     0.603920000000     0.232210000000     0.130047   
H582     H      0.599150000000     0.556900000000     0.243230000000     0.188703   
H583     H      0.589220000000     0.936320000000     0.211720000000     0.149125   
H584     H      0.544650000000     0.886650000000     0.237470000000     0.199279   
H585     H      0.917630000000     0.888160000000     0.221810000000     0.135226   
H586     H      0.868820000000     0.944610000000     0.185310000000     0.193362   
H587     H      0.854750000000     0.537530000000     0.214780000000     0.14252    
H588     H      0.923780000000     0.610630000000     0.230570000000     0.190969   
H589     H      0.514140000000     0.856900000000     0.235170000000     0.205854   
H590     H      0.865920000000     0.937180000000     0.226100000000     0.197737   
H591     H      0.956420000000     0.637520000000     0.235850000000     0.206043   
H592     H      0.623580000000     0.521900000000     0.246800000000     0.207305   
H593     H      0.534850000000     0.788950000000     0.028560000000     0.205567   
H594     H      0.917830000000     0.704840000000     0.020600000000     0.203121   
H595     H      0.944980000000     0.800310000000     0.415170000000     0.204091   
H596     H      0.530990000000     0.686610000000     0.426250000000     0.20526    
H597     H      0.909630000000     0.756200000000     0.072780000000     0.130106   
H598     H      0.863130000000     0.763320000000     0.023440000000     0.185848   
H599     H      0.890050000000     0.757830000000     0.400330000000     0.134455   
H600     H      0.939970000000     0.768910000000     0.355030000000     0.187431   
H601     H      0.556190000000     0.738120000000     0.375740000000     0.13169    
H602     H      0.602110000000     0.721410000000     0.424210000000     0.187271   
H603     H      0.574440000000     0.712400000000     0.041470000000     0.148856   
H604     H      0.533940000000     0.754080000000     0.086250000000     0.195998   
H605     H      0.971260000000     0.750580000000     0.333350000000     0.205582   
H606     H      0.624850000000     0.732770000000     0.457480000000     0.204214   
H607     H      0.499910000000     0.761550000000     0.109860000000     0.207196   
H608     H      0.846250000000     0.785260000000     0.991780000000     0.203185   
H609     H      0.688720000000     0.535720000000     0.028320000000     0.207662   
H610     H      0.804790000000     0.952770000000     0.026720000000     0.210664   
H611     H      0.694890000000     0.915380000000     0.442540000000     0.209388   
H612     H      0.767660000000     0.536270000000     0.410050000000     0.204727   
H613     H      0.770940000000     0.948790000000     0.093330000000     0.12832    
H614     H      0.771920000000     0.876220000000     0.048680000000     0.188852   
H615     H      0.778880000000     0.872130000000     0.437750000000     0.146278   
H616     H      0.702660000000     0.909660000000     0.375610000000     0.200633   
H617     H      0.714320000000     0.526210000000     0.362420000000     0.126157   
H618     H      0.702400000000     0.587790000000     0.402270000000     0.187539   
H619     H      0.748570000000     0.604590000000     0.011080000000     0.148554   
H620     H      0.722420000000     0.556870000000     0.083180000000     0.198504   
H621     H      0.744840000000     0.906510000000     0.377400000000     0.208652   
H622     H      0.701390000000     0.618670000000     0.431200000000     0.203935   
H623     H      0.761760000000     0.567390000000     0.071640000000     0.203709   
H624     H      0.772510000000     0.848330000000     0.017040000000     0.200331   
H625     H      0.871230000000     0.884710000000     0.001400000000     0.103965   
H626     H      0.875550000000     0.870590000000     0.429120000000     0.102874   
H627     H      0.894880000000     0.928970000000     0.443650000000     0.0363454  
H628     H      0.922850000000     0.910560000000     0.974310000000     0.0382038  
H629     H      0.810710000000     0.631450000000     0.428080000000     0.10256    
H630     H      0.834920000000     0.664070000000     0.970710000000     0.104682   
H631     H      0.864930000000     0.598650000000     0.971280000000     0.0395051  
H632     H      0.875630000000     0.615210000000     0.431050000000     0.035358   
H633     H      0.594700000000     0.874490000000     0.985760000000     0.119758   
H634     H      0.666730000000     0.837410000000     0.024430000000     0.103163   
H635     H      0.641030000000     0.811540000000     0.480670000000     0.0250698  
H636     H      0.646220000000     0.850230000000     0.456720000000     0.0175405  
H637     H      0.587410000000     0.557800000000     0.501510000000     0.107502   
H638     H      0.552250000000     0.592420000000     0.971780000000     0.109495   
H639     H      0.611490000000     0.623860000000     0.004750000000     0.0308118  
H640     H      0.618110000000     0.615590000000     0.461380000000     0.0309175  
H641     H      0.843890000000     0.523150000000     0.312790000000     0.105042   
H642     H      0.823310000000     0.967750000000     0.336100000000     0.107408   
H643     H      0.885050000000     0.980660000000     0.360600000000     0.0387994  
H644     H      0.865490000000     0.518140000000     0.374080000000     0.0352528  
H645     H      0.588550000000     0.955630000000     0.403500000000     0.10681    
H646     H      0.559260000000     0.496360000000     0.373180000000     0.109878   
H647     H      0.625900000000     0.494960000000     0.349840000000     0.0368934  
H648     H      0.610200000000     0.952480000000     0.339320000000     0.0295148  
H649     H      0.625360000000     0.515050000000     0.141040000000     0.101749   
H650     H      0.658240000000     0.968770000000     0.121220000000     0.105539   
H651     H      0.594200000000     0.958760000000     0.100030000000     0.0346495  
H652     H      0.602530000000     0.499450000000     0.078630000000     0.0356681  
H653     H      0.887970000000     0.527290000000     0.042150000000     0.111115   
H654     H      0.865260000000     0.536030000000     0.119040000000     0.111342   
H655     H      0.857510000000     0.980950000000     0.094870000000     0.0217598  
H656     H      0.900150000000     0.981780000000     0.079660000000     0.0271082  
H657     H      0.496670000000     0.627350000000     0.330780000000     0.106728   
H658     H      0.938450000000     0.647970000000     0.349270000000     0.103611   
H659     H      0.943700000000     0.584450000000     0.364870000000     0.0338928  
H660     H      0.479580000000     0.596400000000     0.387800000000     0.0371099  
H661     H      0.960580000000     0.861910000000     0.326800000000     0.10211    
H662     H      0.521830000000     0.849870000000     0.346140000000     0.103118   
H663     H      0.505800000000     0.911660000000     0.365720000000     0.0349745  
H664     H      0.969510000000     0.889770000000     0.386080000000     0.0364922  
H665     H      0.513790000000     0.864770000000     0.124600000000     0.104163   
H666     H      0.954330000000     0.859100000000     0.094110000000     0.104415   
H667     H      0.983600000000     0.916510000000     0.075590000000     0.0376799  
H668     H      0.018580000000     0.888860000000     0.065040000000     0.0346758  
H669     H      0.951520000000     0.622860000000     0.124870000000     0.107687   
H670     H      0.506970000000     0.645080000000     0.096560000000     0.107177   
H671     H      0.495240000000     0.582310000000     0.076700000000     0.0366018  
H672     H      0.954670000000     0.599290000000     0.065290000000     0.0335796  
H673     H      0.928940000000     0.552070000000     0.766760000000     0.203994   
H674     H      0.541560000000     0.549830000000     0.682300000000     0.204026   
H675     H      0.527450000000     0.941440000000     0.777770000000     0.209525   
H676     H      0.935090000000     0.944400000000     0.669180000000     0.200816   
H677     H      0.548730000000     0.603950000000     0.732250000000     0.129982   
H678     H      0.599150000000     0.556950000000     0.743190000000     0.18846    
H679     H      0.589220000000     0.936340000000     0.711760000000     0.149261   
H680     H      0.544660000000     0.886670000000     0.737480000000     0.199387   
H681     H      0.917660000000     0.888170000000     0.721790000000     0.135257   
H682     H      0.868840000000     0.944610000000     0.685290000000     0.193327   
H683     H      0.854710000000     0.537470000000     0.714720000000     0.142695   
H684     H      0.923810000000     0.610700000000     0.730570000000     0.1908     
H685     H      0.514140000000     0.856930000000     0.735250000000     0.205988   
H686     H      0.865930000000     0.937180000000     0.726080000000     0.197643   
H687     H      0.956480000000     0.637590000000     0.735720000000     0.205874   
H688     H      0.623580000000     0.521950000000     0.746810000000     0.207223   
H689     H      0.534980000000     0.788910000000     0.528530000000     0.205497   
H690     H      0.917840000000     0.704880000000     0.520520000000     0.202735   
H691     H      0.944850000000     0.800260000000     0.915190000000     0.204038   
H692     H      0.530970000000     0.686640000000     0.926280000000     0.205186   
H693     H      0.909700000000     0.756220000000     0.572740000000     0.130173   
H694     H      0.863090000000     0.762910000000     0.523350000000     0.185908   
H695     H      0.890120000000     0.757800000000     0.900290000000     0.134428   
H696     H      0.939960000000     0.768940000000     0.855010000000     0.187486   
H697     H      0.556100000000     0.738230000000     0.875710000000     0.131772   
H698     H      0.601990000000     0.721460000000     0.924180000000     0.187091   
H699     H      0.574540000000     0.712260000000     0.541400000000     0.148895   
H700     H      0.534010000000     0.754010000000     0.586220000000     0.196275   
H701     H      0.971190000000     0.750480000000     0.833370000000     0.205848   
H702     H      0.624750000000     0.733120000000     0.957340000000     0.204258   
H703     H      0.499990000000     0.761470000000     0.609840000000     0.207289   
H704     H      0.846650000000     0.785800000000     0.492090000000     0.203595   
H705     H      0.688690000000     0.535580000000     0.528320000000     0.207597   
H706     H      0.804760000000     0.952610000000     0.526750000000     0.210615   
H707     H      0.694900000000     0.915530000000     0.942540000000     0.209488   
H708     H      0.767640000000     0.536430000000     0.910030000000     0.2048     
H709     H      0.770900000000     0.948620000000     0.593350000000     0.128171   
H710     H      0.771870000000     0.876070000000     0.548710000000     0.188886   
H711     H      0.778910000000     0.872280000000     0.937730000000     0.146217   
H712     H      0.702650000000     0.909800000000     0.875600000000     0.200451   
H713     H      0.714290000000     0.526370000000     0.862410000000     0.126134   
H714     H      0.702370000000     0.587910000000     0.902240000000     0.187254   
H715     H      0.748580000000     0.604450000000     0.511090000000     0.148394   
H716     H      0.722390000000     0.556710000000     0.583200000000     0.198563   
H717     H      0.744830000000     0.906660000000     0.877380000000     0.208763   
H718     H      0.701310000000     0.618800000000     0.931180000000     0.203718   
H719     H      0.761730000000     0.567230000000     0.571660000000     0.203807   
H720     H      0.772470000000     0.848180000000     0.517080000000     0.200303   
H721     H      0.871210000000     0.884510000000     0.501430000000     0.103538   
H722     H      0.875270000000     0.870450000000     0.929210000000     0.102817   
H723     H      0.894780000000     0.928870000000     0.943390000000     0.0362545  
H724     H      0.922860000000     0.910550000000     0.474600000000     0.0382636  
H725     H      0.810700000000     0.631740000000     0.928150000000     0.102394   
H726     H      0.834900000000     0.664220000000     0.470340000000     0.104672   
H727     H      0.864730000000     0.598940000000     0.471760000000     0.039103   
H728     H      0.875860000000     0.615560000000     0.931130000000     0.0350432  
H729     H      0.594950000000     0.874440000000     0.485120000000     0.119993   
H730     H      0.666570000000     0.837190000000     0.524330000000     0.103085   
H731     H      0.640800000000     0.811710000000     0.981350000000     0.0251417  
H732     H      0.645790000000     0.849960000000     0.956830000000     0.0173705  
H733     H      0.587440000000     0.557920000000     0.001630000000     0.107961   
H734     H      0.552210000000     0.592350000000     0.471790000000     0.109569   
H735     H      0.611520000000     0.623740000000     0.504660000000     0.0302367  
H736     H      0.618150000000     0.615710000000     0.961480000000     0.0310637  
H737     H      0.843910000000     0.523260000000     0.812740000000     0.105051   
H738     H      0.823300000000     0.967860000000     0.836070000000     0.10737    
H739     H      0.885040000000     0.980760000000     0.860580000000     0.038809   
H740     H      0.865490000000     0.518280000000     0.874040000000     0.0352593  
H741     H      0.588550000000     0.955750000000     0.903520000000     0.10681    
H742     H      0.559240000000     0.496430000000     0.873180000000     0.109835   
H743     H      0.625890000000     0.495050000000     0.849840000000     0.0368921  
H744     H      0.610200000000     0.952560000000     0.839340000000     0.0295022  
H745     H      0.625380000000     0.514980000000     0.641030000000     0.101719   
H746     H      0.658180000000     0.968610000000     0.621220000000     0.105579   
H747     H      0.594130000000     0.958700000000     0.600040000000     0.0346375  
H748     H      0.602520000000     0.499380000000     0.578620000000     0.0355782  
H749     H      0.887960000000     0.527080000000     0.542180000000     0.110981   
H750     H      0.865260000000     0.536010000000     0.619050000000     0.111229   
H751     H      0.857420000000     0.980910000000     0.594990000000     0.0218071  
H752     H      0.900060000000     0.981620000000     0.579770000000     0.0270516  
H753     H      0.496550000000     0.627430000000     0.830740000000     0.106707   
H754     H      0.938360000000     0.647950000000     0.849330000000     0.103548   
H755     H      0.943720000000     0.584430000000     0.864900000000     0.0339065  
H756     H      0.479620000000     0.596420000000     0.887770000000     0.0370885  
H757     H      0.960510000000     0.861960000000     0.826800000000     0.102099   
H758     H      0.521730000000     0.849870000000     0.846160000000     0.103128   
H759     H      0.505740000000     0.911670000000     0.865750000000     0.0349629  
H760     H      0.969430000000     0.889800000000     0.886090000000     0.0364483  
H761     H      0.513920000000     0.864780000000     0.624640000000     0.104139   
H762     H      0.954490000000     0.859080000000     0.594110000000     0.104382   
H763     H      0.983770000000     0.916490000000     0.575580000000     0.0376068  
H764     H      0.018770000000     0.888830000000     0.565080000000     0.0345555  
H765     H      0.951480000000     0.622830000000     0.624830000000     0.107698   
H766     H      0.506940000000     0.645020000000     0.596500000000     0.107131   
H767     H      0.495140000000     0.582270000000     0.576640000000     0.0365602  
H768     H      0.954580000000     0.599290000000     0.565250000000     0.0334597  
N1       N      0.397560000000     0.375010000000     0.443230000000    -0.221308   
N2       N      0.371030000000     0.405710000000     0.485620000000    -0.221631   
N3       N      0.358090000000     0.152700000000     0.465270000000    -0.222341   
N4       N      0.322980000000     0.111330000000     0.939650000000    -0.222803   
N5       N      0.155810000000     0.355560000000     0.509230000000    -0.218623   
N6       N      0.101130000000     0.348240000000     0.984870000000    -0.219606   
N7       N      0.066780000000     0.114020000000     0.977370000000    -0.219989   
N8       N      0.107590000000     0.070800000000     0.990980000000    -0.219998   
N9       N      0.331920000000     0.479010000000     0.357640000000    -0.224852   
N10      N      0.366230000000     0.014000000000     0.322430000000    -0.224718   
N11      N      0.072580000000     0.489560000000     0.351520000000    -0.217983   
N12      N      0.110320000000     0.463810000000     0.391230000000    -0.219026   
N13      N      0.145910000000     0.973170000000     0.098630000000    -0.220531   
N14      N      0.104240000000     0.502550000000     0.130880000000    -0.221062   
N15      N      0.386720000000     0.022490000000     0.112390000000    -0.217007   
N16      N      0.367640000000     0.017050000000     0.056230000000    -0.216761   
N17      N      0.449580000000     0.138260000000     0.370370000000    -0.220861   
N18      N      0.484660000000     0.104260000000     0.336380000000    -0.222401   
N19      N      0.510050000000     0.357580000000     0.368030000000    -0.220556   
N20      N      0.969800000000     0.386240000000     0.333930000000    -0.220863   
N21      N      0.972240000000     0.363640000000     0.075230000000    -0.22034    
N22      N      0.007060000000     0.389230000000     0.116030000000    -0.219012   
N23      N      0.992590000000     0.136610000000     0.076930000000    -0.220707   
N24      N      0.465660000000     0.101640000000     0.116540000000    -0.220077   
N25      N      0.397320000000     0.374890000000     0.943240000000    -0.221335   
N26      N      0.371070000000     0.405920000000     0.985570000000    -0.222043   
N27      N      0.358160000000     0.152430000000     0.966000000000    -0.222345   
N28      N      0.323010000000     0.111130000000     0.439660000000    -0.222754   
N29      N      0.155840000000     0.355750000000     0.009350000000    -0.218496   
N30      N      0.101350000000     0.348160000000     0.484180000000    -0.219652   
N31      N      0.066740000000     0.113940000000     0.477350000000    -0.220043   
N32      N      0.107560000000     0.070660000000     0.490890000000    -0.219838   
N33      N      0.331910000000     0.479150000000     0.857610000000    -0.224864   
N34      N      0.366240000000     0.014090000000     0.822400000000    -0.224714   
N35      N      0.072570000000     0.489630000000     0.851520000000    -0.217953   
N36      N      0.110320000000     0.463910000000     0.891240000000    -0.219045   
N37      N      0.145860000000     0.973030000000     0.598630000000    -0.220604   
N38      N      0.104240000000     0.502500000000     0.630870000000    -0.221081   
N39      N      0.386710000000     0.022440000000     0.612400000000    -0.216953   
N40      N      0.367600000000     0.016890000000     0.556260000000    -0.216945   
N41      N      0.449520000000     0.138240000000     0.870420000000    -0.220865   
N42      N      0.484590000000     0.104310000000     0.836350000000    -0.222433   
N43      N      0.509930000000     0.357590000000     0.868050000000    -0.220649   
N44      N      0.969730000000     0.386280000000     0.833930000000    -0.220879   
N45      N      0.972420000000     0.363610000000     0.575240000000    -0.220469   
N46      N      0.007190000000     0.389240000000     0.616060000000    -0.218985   
N47      N      0.992530000000     0.136570000000     0.576880000000    -0.220779   
N48      N      0.465600000000     0.101620000000     0.616500000000    -0.219963   
N49      N      0.397250000000     0.874840000000     0.443260000000    -0.2213     
N50      N      0.371150000000     0.905970000000     0.485620000000    -0.221662   
N51      N      0.358170000000     0.652430000000     0.465250000000    -0.222349   
N52      N      0.323190000000     0.611120000000     0.939390000000    -0.222824   
N53      N      0.155960000000     0.855230000000     0.508360000000    -0.218667   
N54      N      0.101000000000     0.848300000000     0.984510000000    -0.219617   
N55      N      0.066930000000     0.614140000000     0.977310000000    -0.220042   
N56      N      0.107790000000     0.571060000000     0.991180000000    -0.220079   
N57      N      0.332130000000     0.980230000000     0.357570000000    -0.22442    
N58      N      0.366010000000     0.512700000000     0.322440000000    -0.225357   
N59      N      0.072720000000     0.989020000000     0.351420000000    -0.218055   
N60      N      0.110520000000     0.963180000000     0.390980000000    -0.219189   
N61      N      0.145990000000     0.473990000000     0.098810000000    -0.220611   
N62      N      0.104230000000     0.002030000000     0.130690000000    -0.219671   
N63      N      0.385560000000     0.520100000000     0.112680000000    -0.217616   
N64      N      0.368160000000     0.516550000000     0.055850000000    -0.217029   
N65      N      0.449050000000     0.638220000000     0.370550000000    -0.220774   
N66      N      0.483920000000     0.604400000000     0.336190000000    -0.222467   
N67      N      0.509440000000     0.857520000000     0.367860000000    -0.220572   
N68      N      0.969180000000     0.886310000000     0.333870000000    -0.220805   
N69      N      0.971740000000     0.863680000000     0.075050000000    -0.220384   
N70      N      0.006420000000     0.889210000000     0.116000000000    -0.219045   
N71      N      0.992090000000     0.636600000000     0.077120000000    -0.220768   
N72      N      0.464870000000     0.601320000000     0.116340000000    -0.220034   
N73      N      0.397030000000     0.874720000000     0.943270000000    -0.22139    
N74      N      0.371180000000     0.906160000000     0.985570000000    -0.221902   
N75      N      0.358230000000     0.652170000000     0.965970000000    -0.222298   
N76      N      0.323240000000     0.610900000000     0.439390000000    -0.2229     
N77      N      0.155970000000     0.855440000000     0.008550000000    -0.218514   
N78      N      0.101200000000     0.848240000000     0.483810000000    -0.219643   
N79      N      0.066910000000     0.614060000000     0.477280000000    -0.22013    
N80      N      0.107770000000     0.570940000000     0.491090000000    -0.219903   
N81      N      0.332120000000     0.980340000000     0.857540000000    -0.224371   
N82      N      0.366020000000     0.512810000000     0.822410000000    -0.225339   
N83      N      0.072710000000     0.989100000000     0.851420000000    -0.218141   
N84      N      0.110520000000     0.963290000000     0.890990000000    -0.219213   
N85      N      0.145950000000     0.473870000000     0.598800000000    -0.220699   
N86      N      0.104230000000     0.001980000000     0.630670000000    -0.219659   
N87      N      0.385550000000     0.520050000000     0.612700000000    -0.21762    
N88      N      0.368140000000     0.516370000000     0.555890000000    -0.216998   
N89      N      0.449000000000     0.638210000000     0.870600000000    -0.220913   
N90      N      0.483850000000     0.604450000000     0.836160000000    -0.222432   
N91      N      0.509340000000     0.857520000000     0.867880000000    -0.220638   
N92      N      0.969130000000     0.886350000000     0.833880000000    -0.22084    
N93      N      0.971920000000     0.863660000000     0.575060000000    -0.220384   
N94      N      0.006550000000     0.889210000000     0.616030000000    -0.219072   
N95      N      0.992050000000     0.636560000000     0.577060000000    -0.220806   
N96      N      0.464820000000     0.601300000000     0.616300000000    -0.220067   
N97      N      0.897700000000     0.375050000000     0.443160000000    -0.221304   
N98      N      0.870940000000     0.405560000000     0.485540000000    -0.221696   
N99      N      0.858090000000     0.152740000000     0.465220000000    -0.222385   
N100     N      0.823040000000     0.111280000000     0.939640000000    -0.222737   
N101     N      0.655690000000     0.355590000000     0.509090000000    -0.2186     
N102     N      0.601040000000     0.348300000000     0.984660000000    -0.219669   
N103     N      0.566860000000     0.114070000000     0.976950000000    -0.219983   
N104     N      0.607620000000     0.070900000000     0.990840000000    -0.220151   
N105     N      0.831920000000     0.478640000000     0.357690000000    -0.224895   
N106     N      0.866240000000     0.013550000000     0.322410000000    -0.224749   
N107     N      0.572590000000     0.490060000000     0.351580000000    -0.218027   
N108     N      0.610240000000     0.464090000000     0.391250000000    -0.219071   
N109     N      0.645900000000     0.973150000000     0.098640000000    -0.220527   
N110     N      0.604280000000     0.502520000000     0.130950000000    -0.221104   
N111     N      0.886680000000     0.022390000000     0.112390000000    -0.216935   
N112     N      0.867620000000     0.016980000000     0.056220000000    -0.216845   
N113     N      0.950720000000     0.138010000000     0.370280000000    -0.220921   
N114     N      0.985710000000     0.103510000000     0.336680000000    -0.222271   
N115     N      0.009650000000     0.357420000000     0.367990000000    -0.22031    
N116     N      0.470120000000     0.386840000000     0.334360000000    -0.220703   
N117     N      0.472210000000     0.363370000000     0.075330000000    -0.220394   
N118     N      0.506580000000     0.389050000000     0.116410000000    -0.219902   
N119     N      0.492510000000     0.136340000000     0.076670000000    -0.220198   
N120     N      0.965970000000     0.101750000000     0.116760000000    -0.220187   
N121     N      0.897460000000     0.374930000000     0.943160000000    -0.221343   
N122     N      0.870980000000     0.405770000000     0.985490000000    -0.22195    
N123     N      0.858150000000     0.152470000000     0.965950000000    -0.222301   
N124     N      0.823070000000     0.111080000000     0.439660000000    -0.22274    
N125     N      0.655720000000     0.355780000000     0.009200000000    -0.218463   
N126     N      0.601270000000     0.348220000000     0.483980000000    -0.219673   
N127     N      0.566820000000     0.113980000000     0.476940000000    -0.220031   
N128     N      0.607590000000     0.070760000000     0.490750000000    -0.219854   
N129     N      0.831910000000     0.478770000000     0.857660000000    -0.224841   
N130     N      0.866250000000     0.013630000000     0.822380000000    -0.224692   
N131     N      0.572580000000     0.490130000000     0.851580000000    -0.218023   
N132     N      0.610240000000     0.464200000000     0.891260000000    -0.21905    
N133     N      0.645860000000     0.973010000000     0.598640000000    -0.220574   
N134     N      0.604290000000     0.502460000000     0.630940000000    -0.221092   
N135     N      0.886670000000     0.022350000000     0.612410000000    -0.216963   
N136     N      0.867590000000     0.016830000000     0.556260000000    -0.216912   
N137     N      0.950670000000     0.137990000000     0.870330000000    -0.220913   
N138     N      0.985650000000     0.103560000000     0.836650000000    -0.222281   
N139     N      0.009540000000     0.357430000000     0.868010000000    -0.22035    
N140     N      0.470040000000     0.386890000000     0.834370000000    -0.220659   
N141     N      0.472380000000     0.363350000000     0.575330000000    -0.220453   
N142     N      0.506700000000     0.389060000000     0.616440000000    -0.219841   
N143     N      0.492440000000     0.136300000000     0.576620000000    -0.220195   
N144     N      0.965910000000     0.101730000000     0.616730000000    -0.220205   
N145     N      0.897400000000     0.874880000000     0.443180000000    -0.221336   
N146     N      0.871060000000     0.905810000000     0.485550000000    -0.221636   
N147     N      0.858170000000     0.652470000000     0.465190000000    -0.222318   
N148     N      0.823250000000     0.611060000000     0.939370000000    -0.222754   
N149     N      0.655840000000     0.855270000000     0.508230000000    -0.218701   
N150     N      0.600910000000     0.848350000000     0.984300000000    -0.21968    
N151     N      0.567010000000     0.614180000000     0.976900000000    -0.219985   
N152     N      0.607820000000     0.571150000000     0.991040000000    -0.220171   
N153     N      0.832130000000     0.979870000000     0.357610000000    -0.224408   
N154     N      0.866020000000     0.512230000000     0.322430000000    -0.225324   
N155     N      0.572720000000     0.989510000000     0.351480000000    -0.218161   
N156     N      0.610430000000     0.963470000000     0.391000000000    -0.219167   
N157     N      0.645990000000     0.473970000000     0.098810000000    -0.220686   
N158     N      0.604270000000     0.002010000000     0.130750000000    -0.219548   
N159     N      0.885530000000     0.520010000000     0.112680000000    -0.217631   
N160     N      0.868150000000     0.516490000000     0.055840000000    -0.217048   
N161     N      0.950220000000     0.637980000000     0.370430000000    -0.220916   
N162     N      0.985010000000     0.603630000000     0.336500000000    -0.222295   
N163     N      0.009050000000     0.857370000000     0.367830000000    -0.220246   
N164     N      0.469500000000     0.886900000000     0.334300000000    -0.220636   
N165     N      0.471730000000     0.863410000000     0.075160000000    -0.220497   
N166     N      0.505970000000     0.889050000000     0.116370000000    -0.219939   
N167     N      0.491970000000     0.636320000000     0.076890000000    -0.220268   
N168     N      0.965230000000     0.601460000000     0.116580000000    -0.220227   
N169     N      0.897170000000     0.874770000000     0.943180000000    -0.221337   
N170     N      0.871090000000     0.906000000000     0.985490000000    -0.221886   
N171     N      0.858220000000     0.652220000000     0.965910000000    -0.22226    
N172     N      0.823300000000     0.610850000000     0.439380000000    -0.222758   
N173     N      0.655850000000     0.855480000000     0.008410000000    -0.218549   
N174     N      0.601110000000     0.848300000000     0.483610000000    -0.219776   
N175     N      0.566990000000     0.614100000000     0.476880000000    -0.220018   
N176     N      0.607800000000     0.571040000000     0.490950000000    -0.219933   
N177     N      0.832120000000     0.979980000000     0.857590000000    -0.224373   
N178     N      0.866030000000     0.512330000000     0.822390000000    -0.225363   
N179     N      0.572710000000     0.989580000000     0.851480000000    -0.218221   
N180     N      0.610430000000     0.963580000000     0.891020000000    -0.219246   
N181     N      0.645950000000     0.473840000000     0.598810000000    -0.220661   
N182     N      0.604270000000     0.001950000000     0.630740000000    -0.21964    
N183     N      0.885520000000     0.519960000000     0.612700000000    -0.217627   
N184     N      0.868120000000     0.516320000000     0.555880000000    -0.217044   
N185     N      0.950170000000     0.637960000000     0.870480000000    -0.220917   
N186     N      0.984950000000     0.603680000000     0.836470000000    -0.222337   
N187     N      0.008960000000     0.857370000000     0.867840000000    -0.220298   
N188     N      0.469440000000     0.886940000000     0.834300000000    -0.220729   
N189     N      0.471900000000     0.863390000000     0.575160000000    -0.220417   
N190     N      0.506080000000     0.889050000000     0.616400000000    -0.219905   
N191     N      0.491920000000     0.636280000000     0.576830000000    -0.220225   
N192     N      0.965190000000     0.601440000000     0.616540000000    -0.220247   
O1       O      0.402580000000     0.025070000000     0.165870000000    -0.352874   
O2       O      0.438310000000     0.500180000000     0.128650000000    -0.344475   
O3       O      0.490350000000     0.090310000000     0.282570000000    -0.365908   
O4       O      0.974340000000     0.048640000000     0.320190000000    -0.352374   
O5       O      0.472930000000     0.088060000000     0.170450000000    -0.350238   
O6       O      0.987750000000     0.049150000000     0.130510000000    -0.354279   
O7       O      0.386090000000     0.011280000000     0.270380000000    -0.376291   
O8       O      0.421090000000     0.498880000000     0.313940000000    -0.361363   
O9       O      0.355130000000     0.013620000000     0.212790000000    -0.311503   
O10      O      0.375390000000     0.449500000000     0.208070000000    -0.516937   
O11      O      0.449580000000     0.115670000000     0.231950000000    -0.50844    
O12      O      0.029770000000     0.111980000000     0.220330000000    -0.342862   
O13      O      0.450640000000     0.036190000000     0.189860000000    -0.447833   
O14      O      0.443240000000     0.036820000000     0.254450000000    -0.608947   
O15      O      0.969940000000     0.400500000000     0.279700000000    -0.363582   
O16      O      0.475120000000     0.443110000000     0.319520000000    -0.354797   
O17      O      0.083080000000     0.501750000000     0.182290000000    -0.373537   
O18      O      0.047140000000     0.994780000000     0.137930000000    -0.347319   
O19      O      0.070350000000     0.490120000000     0.294070000000    -0.34734    
O20      O      0.022740000000     0.995060000000     0.325870000000    -0.354662   
O21      O      0.997570000000     0.402540000000     0.169890000000    -0.355881   
O22      O      0.494820000000     0.444610000000     0.130350000000    -0.35798    
O23      O      0.022120000000     0.380730000000     0.234240000000    -0.510803   
O24      O      0.440610000000     0.378420000000     0.215100000000    -0.339967   
O25      O      0.090080000000     0.445750000000     0.234600000000    -0.344852   
O26      O      0.102120000000     0.030680000000     0.243180000000    -0.511755   
O27      O      0.016090000000     0.456150000000     0.262210000000    -0.612262   
O28      O      0.024130000000     0.457060000000     0.196950000000    -0.464944   
O29      O      0.439610000000     0.457120000000     0.257090000000    -0.479549   
O30      O      0.027210000000     0.034530000000     0.195140000000    -0.61704    
O31      O      0.447760000000     0.457510000000     0.185530000000    -0.619205   
O32      O      0.019200000000     0.034200000000     0.266190000000    -0.476685   
O33      O      0.066800000000     0.173570000000     0.980510000000    -0.353334   
O34      O      0.017720000000     0.142410000000     0.475120000000    -0.357798   
O35      O      0.967820000000     0.307640000000     0.062000000000    -0.365785   
O36      O      0.489140000000     0.345460000000     0.023870000000    -0.348938   
O37      O      0.986820000000     0.192080000000     0.062460000000    -0.354703   
O38      O      0.471960000000     0.150120000000     0.025180000000    -0.350574   
O39      O      0.082610000000     0.292240000000     0.980970000000    -0.353564   
O40      O      0.045780000000     0.337620000000     0.479540000000    -0.361972   
O41      O      0.084750000000     0.231380000000     0.029620000000    -0.343199   
O42      O      0.103400000000     0.228550000000     0.447800000000    -0.514823   
O43      O      0.008830000000     0.256650000000     0.089090000000    -0.508794   
O44      O      0.429040000000     0.242720000000     0.081850000000    -0.34342    
O45      O      0.010720000000     0.209160000000     0.013750000000    -0.463859   
O46      O      0.020780000000     0.275940000000     0.013820000000    -0.607365   
O47      O      0.506080000000     0.301630000000     0.382290000000    -0.364891   
O48      O      0.998480000000     0.343410000000     0.421640000000    -0.352784   
O49      O      0.380560000000     0.205380000000     0.468270000000    -0.368274   
O50      O      0.415660000000     0.158330000000     0.967820000000    -0.353302   
O51      O      0.400380000000     0.317690000000     0.451830000000    -0.372107   
O52      O      0.445770000000     0.351840000000     0.963590000000    -0.352842   
O53      O      0.464490000000     0.192590000000     0.383780000000    -0.354884   
O54      O      0.967370000000     0.149860000000     0.422990000000    -0.352618   
O55      O      0.461380000000     0.257750000000     0.354370000000    -0.505275   
O56      O      0.035820000000     0.228160000000     0.366760000000    -0.346864   
O57      O      0.374940000000     0.257280000000     0.420010000000    -0.323423   
O58      O      0.364600000000     0.271740000000     0.001000000000    -0.514496   
O59      O      0.454210000000     0.285060000000     0.431610000000    -0.614791   
O60      O      0.443540000000     0.218900000000     0.432330000000    -0.463244   
O61      O      0.030340000000     0.277170000000     0.439190000000    -0.474101   
O62      O      0.434420000000     0.217400000000     0.007590000000    -0.623344   
O63      O      0.019060000000     0.203670000000     0.439380000000    -0.620677   
O64      O      0.444890000000     0.290810000000     0.006830000000    -0.478146   
O65      O      0.271830000000     0.087490000000     0.948710000000    -0.375282   
O66      O      0.319980000000     0.055130000000     0.455360000000    -0.354621   
O67      O      0.197670000000     0.981430000000     0.076240000000    -0.358556   
O68      O      0.151430000000     0.475010000000     0.042710000000    -0.354954   
O69      O      0.310280000000     0.005390000000     0.057290000000    -0.353444   
O70      O      0.338760000000     0.514590000000     0.008270000000    -0.353393   
O71      O      0.163050000000     0.068870000000     0.975470000000    -0.356649   
O72      O      0.135070000000     0.019520000000     0.490820000000    -0.351365   
O73      O      0.223870000000     0.099800000000     0.007390000000    -0.338916   
O74      O      0.205140000000     0.094900000000     0.424990000000    -0.510993   
O75      O      0.242630000000     0.050970000000     0.071900000000    -0.515098   
O76      O      0.263880000000     0.472790000000     0.098250000000    -0.322692   
O77      O      0.267810000000     0.036470000000     0.002680000000    -0.468767   
O78      O      0.203180000000     0.022360000000     0.013910000000    -0.604725   
O79      O      0.167500000000     0.471120000000     0.393690000000    -0.359614   
O80      O      0.136970000000     0.962570000000     0.441090000000    -0.351115   
O81      O      0.314190000000     0.406050000000     0.489930000000    -0.376668   
O82      O      0.342040000000     0.453160000000     0.968780000000    -0.354139   
O83      O      0.205640000000     0.383100000000     0.507750000000    -0.363528   
O84      O      0.157110000000     0.412930000000     0.995570000000    -0.353191   
O85      O      0.279880000000     0.472670000000     0.379200000000    -0.367451   
O86      O      0.323380000000     0.993110000000     0.411620000000    -0.363531   
O87      O      0.223900000000     0.418960000000     0.382340000000    -0.513485   
O88      O      0.218380000000     0.001800000000     0.356700000000    -0.323446   
O89      O      0.254440000000     0.374000000000     0.444070000000    -0.34683    
O90      O      0.269000000000     0.371410000000     0.025520000000    -0.504576   
O91      O      0.207890000000     0.434200000000     0.451780000000    -0.609188   
O92      O      0.273060000000     0.447340000000     0.440060000000    -0.467094   
O93      O      0.188700000000     0.009670000000     0.440890000000    -0.475377   
O94      O      0.286470000000     0.461170000000     0.013310000000    -0.629019   
O95      O      0.258430000000     0.023140000000     0.428230000000    -0.624355   
O96      O      0.216880000000     0.447250000000     0.025870000000    -0.469459   
O97      O      0.402620000000     0.025110000000     0.665870000000    -0.352724   
O98      O      0.438310000000     0.500140000000     0.628650000000    -0.344475   
O99      O      0.490290000000     0.090350000000     0.782550000000    -0.36591    
O100     O      0.974330000000     0.048670000000     0.820170000000    -0.352412   
O101     O      0.472900000000     0.088050000000     0.670420000000    -0.35003    
O102     O      0.987740000000     0.049140000000     0.630490000000    -0.354232   
O103     O      0.386090000000     0.011330000000     0.770350000000    -0.376348   
O104     O      0.421090000000     0.498940000000     0.813920000000    -0.361268   
O105     O      0.355120000000     0.013570000000     0.712750000000    -0.31151    
O106     O      0.375400000000     0.449510000000     0.708040000000    -0.516681   
O107     O      0.449630000000     0.115740000000     0.731890000000    -0.508464   
O108     O      0.029790000000     0.111980000000     0.720290000000    -0.342995   
O109     O      0.450650000000     0.036200000000     0.689840000000    -0.447798   
O110     O      0.443240000000     0.036850000000     0.754420000000    -0.609076   
O111     O      0.969920000000     0.400530000000     0.779700000000    -0.363484   
O112     O      0.475100000000     0.443160000000     0.819520000000    -0.354702   
O113     O      0.083090000000     0.501750000000     0.682290000000    -0.373478   
O114     O      0.047140000000     0.994770000000     0.637920000000    -0.347396   
O115     O      0.070350000000     0.490180000000     0.794070000000    -0.347271   
O116     O      0.022730000000     0.995110000000     0.825870000000    -0.354562   
O117     O      0.997640000000     0.402560000000     0.669910000000    -0.355831   
O118     O      0.494870000000     0.444610000000     0.630360000000    -0.357956   
O119     O      0.022120000000     0.380760000000     0.734280000000    -0.510865   
O120     O      0.440630000000     0.378430000000     0.715080000000    -0.339786   
O121     O      0.090100000000     0.445790000000     0.734620000000    -0.344717   
O122     O      0.102110000000     0.030730000000     0.743160000000    -0.511546   
O123     O      0.016100000000     0.456180000000     0.762210000000    -0.612171   
O124     O      0.024140000000     0.457080000000     0.696960000000    -0.464877   
O125     O      0.439620000000     0.457150000000     0.757090000000    -0.479567   
O126     O      0.027210000000     0.034550000000     0.695120000000    -0.617086   
O127     O      0.447770000000     0.457520000000     0.685530000000    -0.619131   
O128     O      0.019200000000     0.034230000000     0.766170000000    -0.476729   
O129     O      0.066820000000     0.173490000000     0.480470000000    -0.353266   
O130     O      0.017730000000     0.142440000000     0.975140000000    -0.357853   
O131     O      0.967960000000     0.307630000000     0.561980000000    -0.365811   
O132     O      0.489350000000     0.345440000000     0.523880000000    -0.349184   
O133     O      0.986830000000     0.192050000000     0.562410000000    -0.354711   
O134     O      0.471890000000     0.150120000000     0.525140000000    -0.35102    
O135     O      0.082760000000     0.292150000000     0.480710000000    -0.353502   
O136     O      0.045590000000     0.337680000000     0.979750000000    -0.361971   
O137     O      0.084720000000     0.231380000000     0.529670000000    -0.34378    
O138     O      0.103290000000     0.228750000000     0.947740000000    -0.514533   
O139     O      0.008910000000     0.256590000000     0.589060000000    -0.508923   
O140     O      0.429110000000     0.242750000000     0.581820000000    -0.343172   
O141     O      0.010750000000     0.209110000000     0.513710000000    -0.464141   
O142     O      0.020890000000     0.275900000000     0.513810000000    -0.607643   
O143     O      0.505950000000     0.301640000000     0.882310000000    -0.364817   
O144     O      0.998350000000     0.343420000000     0.921660000000    -0.352817   
O145     O      0.380500000000     0.205230000000     0.968560000000    -0.368327   
O146     O      0.415630000000     0.158400000000     0.467560000000    -0.353021   
O147     O      0.400190000000     0.317570000000     0.951880000000    -0.371998   
O148     O      0.445970000000     0.351910000000     0.463610000000    -0.352736   
O149     O      0.464420000000     0.192570000000     0.883820000000    -0.354751   
O150     O      0.967340000000     0.149850000000     0.923030000000    -0.35269    
O151     O      0.461310000000     0.257720000000     0.854380000000    -0.50524    
O152     O      0.035750000000     0.228180000000     0.866790000000    -0.346977   
O153     O      0.374960000000     0.256970000000     0.919940000000    -0.323651   
O154     O      0.364770000000     0.271830000000     0.501080000000    -0.515152   
O155     O      0.454080000000     0.285020000000     0.931640000000    -0.614667   
O156     O      0.443490000000     0.218830000000     0.932360000000    -0.4631     
O157     O      0.030240000000     0.277220000000     0.939210000000    -0.47401    
O158     O      0.434450000000     0.217440000000     0.507540000000    -0.623578   
O159     O      0.019030000000     0.203710000000     0.939400000000    -0.620647   
O160     O      0.445030000000     0.290860000000     0.506820000000    -0.478608   
O161     O      0.271870000000     0.087290000000     0.448740000000    -0.375326   
O162     O      0.319930000000     0.055300000000     0.955260000000    -0.354715   
O163     O      0.197630000000     0.981270000000     0.576250000000    -0.358595   
O164     O      0.151400000000     0.474880000000     0.542720000000    -0.355448   
O165     O      0.310240000000     0.005240000000     0.557320000000    -0.353538   
O166     O      0.338750000000     0.514400000000     0.508300000000    -0.353726   
O167     O      0.163040000000     0.068730000000     0.475440000000    -0.356598   
O168     O      0.135090000000     0.019650000000     0.990870000000    -0.351453   
O169     O      0.223860000000     0.099640000000     0.507420000000    -0.339248   
O170     O      0.205100000000     0.095030000000     0.924970000000    -0.511201   
O171     O      0.242590000000     0.050810000000     0.571920000000    -0.51513    
O172     O      0.263840000000     0.472630000000     0.598280000000    -0.322593   
O173     O      0.267800000000     0.036300000000     0.502710000000    -0.469179   
O174     O      0.203160000000     0.022210000000     0.513920000000    -0.604922   
O175     O      0.167500000000     0.471250000000     0.893690000000    -0.359645   
O176     O      0.136990000000     0.962710000000     0.941100000000    -0.35111    
O177     O      0.314230000000     0.406240000000     0.989900000000    -0.376714   
O178     O      0.342020000000     0.452970000000     0.468830000000    -0.354019   
O179     O      0.205680000000     0.383260000000     0.007720000000    -0.36357    
O180     O      0.157090000000     0.412780000000     0.495540000000    -0.352799   
O181     O      0.279870000000     0.472820000000     0.879180000000    -0.367369   
O182     O      0.323380000000     0.993260000000     0.911580000000    -0.363543   
O183     O      0.223900000000     0.419120000000     0.882320000000    -0.513342   
O184     O      0.218370000000     0.001950000000     0.856690000000    -0.323447   
O185     O      0.254490000000     0.374170000000     0.944040000000    -0.346939   
O186     O      0.268950000000     0.371250000000     0.525560000000    -0.504834   
O187     O      0.207910000000     0.434350000000     0.951770000000    -0.609134   
O188     O      0.273070000000     0.447510000000     0.940030000000    -0.466997   
O189     O      0.188700000000     0.009810000000     0.940880000000    -0.475296   
O190     O      0.286440000000     0.461000000000     0.513340000000    -0.629433   
O191     O      0.258430000000     0.023300000000     0.928210000000    -0.624168   
O192     O      0.216850000000     0.447100000000     0.525880000000    -0.469888   
O193     O      0.402090000000     0.524040000000     0.165870000000    -0.353296   
O194     O      0.438620000000     0.000940000000     0.128620000000    -0.343832   
O195     O      0.489540000000     0.590400000000     0.282400000000    -0.366067   
O196     O      0.973940000000     0.548650000000     0.320110000000    -0.352689   
O197     O      0.472100000000     0.587840000000     0.170290000000    -0.350337   
O198     O      0.987300000000     0.549010000000     0.130420000000    -0.35522    
O199     O      0.385880000000     0.510260000000     0.270390000000    -0.376922   
O200     O      0.421120000000     0.999320000000     0.313920000000    -0.361761   
O201     O      0.354920000000     0.512480000000     0.212880000000    -0.31217    
O202     O      0.375060000000     0.950600000000     0.207940000000    -0.516726   
O203     O      0.448280000000     0.615180000000     0.231800000000    -0.508757   
O204     O      0.028540000000     0.612410000000     0.220150000000    -0.342652   
O205     O      0.450170000000     0.535780000000     0.189780000000    -0.448576   
O206     O      0.442790000000     0.536430000000     0.254400000000    -0.610028   
O207     O      0.969330000000     0.900610000000     0.279650000000    -0.36342    
O208     O      0.474810000000     0.943150000000     0.319490000000    -0.354724   
O209     O      0.083210000000     0.000960000000     0.182200000000    -0.371577   
O210     O      0.047130000000     0.494970000000     0.138000000000    -0.347452   
O211     O      0.070430000000     0.989560000000     0.294000000000    -0.347751   
O212     O      0.022620000000     0.495390000000     0.325910000000    -0.354552   
O213     O      0.996960000000     0.902550000000     0.169850000000    -0.355827   
O214     O      0.494550000000     0.944670000000     0.130340000000    -0.358068   
O215     O      0.021080000000     0.880330000000     0.234110000000    -0.510757   
O216     O      0.439580000000     0.878950000000     0.214950000000    -0.339957   
O217     O      0.089650000000     0.944760000000     0.234570000000    -0.345121   
O218     O      0.101620000000     0.531800000000     0.243260000000    -0.512321   
O219     O      0.015840000000     0.955890000000     0.262160000000    -0.611869   
O220     O      0.023890000000     0.956760000000     0.196920000000    -0.464723   
O221     O      0.439330000000     0.957540000000     0.257040000000    -0.479483   
O222     O      0.026760000000     0.534810000000     0.195090000000    -0.617852   
O223     O      0.447510000000     0.957950000000     0.185480000000    -0.619167   
O224     O      0.018770000000     0.534530000000     0.266130000000    -0.477548   
O225     O      0.066840000000     0.673670000000     0.980440000000    -0.353526   
O226     O      0.017820000000     0.642430000000     0.475080000000    -0.357892   
O227     O      0.967550000000     0.807640000000     0.061900000000    -0.365762   
O228     O      0.488880000000     0.845460000000     0.023780000000    -0.348798   
O229     O      0.986520000000     0.692070000000     0.062570000000    -0.355026   
O230     O      0.471890000000     0.650090000000     0.025220000000    -0.350835   
O231     O      0.082500000000     0.792300000000     0.980690000000    -0.353573   
O232     O      0.045610000000     0.837650000000     0.479430000000    -0.362125   
O233     O      0.084710000000     0.731560000000     0.029510000000    -0.343279   
O234     O      0.103310000000     0.728630000000     0.447680000000    -0.514689   
O235     O      0.009230000000     0.756740000000     0.088770000000    -0.509164   
O236     O      0.429240000000     0.742820000000     0.082050000000    -0.342702   
O237     O      0.010730000000     0.709150000000     0.013720000000    -0.464087   
O238     O      0.020710000000     0.775980000000     0.013730000000    -0.607404   
O239     O      0.505650000000     0.801570000000     0.382180000000    -0.364876   
O240     O      0.998140000000     0.843380000000     0.421540000000    -0.352838   
O241     O      0.380540000000     0.705170000000     0.468340000000    -0.36839    
O242     O      0.415710000000     0.658190000000     0.967840000000    -0.353188   
O243     O      0.400160000000     0.817520000000     0.451920000000    -0.371913   
O244     O      0.445550000000     0.851750000000     0.963520000000    -0.35298    
O245     O      0.464090000000     0.692540000000     0.383900000000    -0.354564   
O246     O      0.967270000000     0.649780000000     0.423030000000    -0.352611   
O247     O      0.461380000000     0.757490000000     0.354200000000    -0.505295   
O248     O      0.035680000000     0.728040000000     0.366770000000    -0.347152   
O249     O      0.374800000000     0.757080000000     0.420080000000    -0.323432   
O250     O      0.364510000000     0.771510000000     0.001100000000    -0.514417   
O251     O      0.454020000000     0.784950000000     0.431600000000    -0.614726   
O252     O      0.443440000000     0.718770000000     0.432380000000    -0.463137   
O253     O      0.030160000000     0.777180000000     0.439080000000    -0.474091   
O254     O      0.434430000000     0.717310000000     0.007630000000    -0.623202   
O255     O      0.019000000000     0.703650000000     0.439320000000    -0.620549   
O256     O      0.444800000000     0.790730000000     0.006820000000    -0.478108   
O257     O      0.272010000000     0.587400000000     0.948550000000    -0.375375   
O258     O      0.320100000000     0.554930000000     0.455150000000    -0.355177   
O259     O      0.197800000000     0.481960000000     0.076370000000    -0.358236   
O260     O      0.151340000000     0.974560000000     0.042520000000    -0.355006   
O261     O      0.310680000000     0.505230000000     0.057210000000    -0.353611   
O262     O      0.338570000000     0.014730000000     0.008460000000    -0.352821   
O263     O      0.163220000000     0.569020000000     0.975560000000    -0.356679   
O264     O      0.135210000000     0.519770000000     0.491090000000    -0.351985   
O265     O      0.224190000000     0.599890000000     0.007350000000    -0.338945   
O266     O      0.205310000000     0.594940000000     0.424990000000    -0.511178   
O267     O      0.243220000000     0.551180000000     0.071880000000    -0.515561   
O268     O      0.263680000000     0.972670000000     0.098170000000    -0.322797   
O269     O      0.268020000000     0.536480000000     0.002640000000    -0.469353   
O270     O      0.203400000000     0.522510000000     0.014010000000    -0.605128   
O271     O      0.167650000000     0.970860000000     0.393510000000    -0.359746   
O272     O      0.136870000000     0.462960000000     0.441320000000    -0.350599   
O273     O      0.314310000000     0.906200000000     0.489900000000    -0.376662   
O274     O      0.342080000000     0.953340000000     0.968760000000    -0.354214   
O275     O      0.205730000000     0.882910000000     0.507280000000    -0.363459   
O276     O      0.157170000000     0.912700000000     0.995100000000    -0.352996   
O277     O      0.280100000000     0.973290000000     0.379060000000    -0.367115   
O278     O      0.323290000000     0.492530000000     0.411560000000    -0.363575   
O279     O      0.224480000000     0.919060000000     0.382120000000    -0.513283   
O280     O      0.218380000000     0.501700000000     0.356810000000    -0.324289   
O281     O      0.254800000000     0.874080000000     0.443820000000    -0.34678    
O282     O      0.269080000000     0.871380000000     0.025340000000    -0.504746   
O283     O      0.208040000000     0.934170000000     0.451540000000    -0.609093   
O284     O      0.273210000000     0.947460000000     0.439950000000    -0.466899   
O285     O      0.188720000000     0.509750000000     0.441040000000    -0.476357   
O286     O      0.286410000000     0.961200000000     0.013270000000    -0.628639   
O287     O      0.258450000000     0.523030000000     0.428220000000    -0.624905   
O288     O      0.216820000000     0.947070000000     0.025660000000    -0.469439   
O289     O      0.402140000000     0.524090000000     0.665860000000    -0.353328   
O290     O      0.438620000000     0.000910000000     0.628620000000    -0.343853   
O291     O      0.489490000000     0.590440000000     0.782370000000    -0.365968   
O292     O      0.973930000000     0.548690000000     0.820100000000    -0.35272    
O293     O      0.472080000000     0.587840000000     0.670250000000    -0.350199   
O294     O      0.987290000000     0.549010000000     0.630390000000    -0.355221   
O295     O      0.385880000000     0.510320000000     0.770360000000    -0.376884   
O296     O      0.421120000000     0.999380000000     0.813900000000    -0.361712   
O297     O      0.354910000000     0.512430000000     0.712830000000    -0.312169   
O298     O      0.375080000000     0.950610000000     0.707920000000    -0.516635   
O299     O      0.448320000000     0.615250000000     0.731740000000    -0.508892   
O300     O      0.028560000000     0.612410000000     0.720110000000    -0.342646   
O301     O      0.450180000000     0.535790000000     0.689760000000    -0.448466   
O302     O      0.442790000000     0.536460000000     0.754370000000    -0.609778   
O303     O      0.969320000000     0.900650000000     0.779660000000    -0.363468   
O304     O      0.474800000000     0.943180000000     0.819490000000    -0.354829   
O305     O      0.083210000000     0.000950000000     0.682190000000    -0.371636   
O306     O      0.047130000000     0.494970000000     0.638000000000    -0.347436   
O307     O      0.070430000000     0.989620000000     0.794000000000    -0.347688   
O308     O      0.022610000000     0.495440000000     0.825910000000    -0.354559   
O309     O      0.997020000000     0.902570000000     0.669870000000    -0.355802   
O310     O      0.494590000000     0.944670000000     0.630340000000    -0.35789    
O311     O      0.021090000000     0.880350000000     0.734150000000    -0.510425   
O312     O      0.439610000000     0.878970000000     0.714940000000    -0.340084   
O313     O      0.089670000000     0.944800000000     0.734600000000    -0.344906   
O314     O      0.101620000000     0.531840000000     0.743250000000    -0.51213    
O315     O      0.015840000000     0.955920000000     0.762170000000    -0.611663   
O316     O      0.023900000000     0.956780000000     0.696920000000    -0.464701   
O317     O      0.439340000000     0.957570000000     0.757030000000    -0.479564   
O318     O      0.026770000000     0.534830000000     0.695070000000    -0.617914   
O319     O      0.447530000000     0.957950000000     0.685480000000    -0.618859   
O320     O      0.018770000000     0.534570000000     0.766120000000    -0.477616   
O321     O      0.066870000000     0.673600000000     0.480390000000    -0.353443   
O322     O      0.017820000000     0.642460000000     0.975110000000    -0.358131   
O323     O      0.967690000000     0.807630000000     0.561890000000    -0.365787   
O324     O      0.489070000000     0.845440000000     0.523790000000    -0.349196   
O325     O      0.986540000000     0.692040000000     0.562520000000    -0.355022   
O326     O      0.471830000000     0.650090000000     0.525170000000    -0.351217   
O327     O      0.082640000000     0.792220000000     0.480420000000    -0.353418   
O328     O      0.045430000000     0.837700000000     0.979630000000    -0.361972   
O329     O      0.084690000000     0.731570000000     0.529550000000    -0.343931   
O330     O      0.103210000000     0.728810000000     0.947620000000    -0.514639   
O331     O      0.009310000000     0.756670000000     0.588750000000    -0.509284   
O332     O      0.429300000000     0.742840000000     0.582020000000    -0.34267    
O333     O      0.010770000000     0.709110000000     0.513680000000    -0.464326   
O334     O      0.020820000000     0.775950000000     0.513710000000    -0.607612   
O335     O      0.505530000000     0.801580000000     0.882200000000    -0.364968   
O336     O      0.998030000000     0.843390000000     0.921560000000    -0.352828   
O337     O      0.380470000000     0.705030000000     0.968630000000    -0.368204   
O338     O      0.415690000000     0.658260000000     0.467580000000    -0.353018   
O339     O      0.399980000000     0.817420000000     0.951960000000    -0.37201    
O340     O      0.445740000000     0.851810000000     0.463550000000    -0.352671   
O341     O      0.464020000000     0.692520000000     0.883940000000    -0.354419   
O342     O      0.967240000000     0.649770000000     0.923070000000    -0.352576   
O343     O      0.461320000000     0.757460000000     0.854210000000    -0.505131   
O344     O      0.035620000000     0.728050000000     0.866800000000    -0.347132   
O345     O      0.374830000000     0.756790000000     0.920010000000    -0.323744   
O346     O      0.364680000000     0.771580000000     0.501180000000    -0.515188   
O347     O      0.453900000000     0.784900000000     0.931630000000    -0.614447   
O348     O      0.443390000000     0.718710000000     0.932410000000    -0.46298    
O349     O      0.030070000000     0.777220000000     0.939100000000    -0.474059   
O350     O      0.434460000000     0.717350000000     0.507590000000    -0.623707   
O351     O      0.018960000000     0.703680000000     0.939350000000    -0.620579   
O352     O      0.444920000000     0.790770000000     0.506810000000    -0.478421   
O353     O      0.272060000000     0.587190000000     0.448570000000    -0.375356   
O354     O      0.320050000000     0.555110000000     0.955060000000    -0.355273   
O355     O      0.197770000000     0.481810000000     0.576380000000    -0.358286   
O356     O      0.151310000000     0.974420000000     0.542520000000    -0.355418   
O357     O      0.310650000000     0.505070000000     0.557240000000    -0.353662   
O358     O      0.338550000000     0.014560000000     0.508500000000    -0.353137   
O359     O      0.163220000000     0.568890000000     0.475530000000    -0.356607   
O360     O      0.135220000000     0.519890000000     0.991140000000    -0.352129   
O361     O      0.224200000000     0.599730000000     0.507370000000    -0.339284   
O362     O      0.205260000000     0.595070000000     0.924980000000    -0.511109   
O363     O      0.243190000000     0.551020000000     0.571900000000    -0.515525   
O364     O      0.263630000000     0.972510000000     0.598190000000    -0.322673   
O365     O      0.268020000000     0.536320000000     0.502660000000    -0.469643   
O366     O      0.203390000000     0.522370000000     0.514020000000    -0.605447   
O367     O      0.167650000000     0.970990000000     0.893510000000    -0.359673   
O368     O      0.136890000000     0.463090000000     0.941330000000    -0.350572   
O369     O      0.314340000000     0.906370000000     0.989870000000    -0.376818   
O370     O      0.342060000000     0.953170000000     0.468820000000    -0.354079   
O371     O      0.205770000000     0.883070000000     0.007270000000    -0.363213   
O372     O      0.157160000000     0.912540000000     0.495050000000    -0.352661   
O373     O      0.280090000000     0.973430000000     0.879040000000    -0.367178   
O374     O      0.323290000000     0.492690000000     0.911530000000    -0.363475   
O375     O      0.224480000000     0.919210000000     0.882100000000    -0.513211   
O376     O      0.218360000000     0.501870000000     0.856800000000    -0.324282   
O377     O      0.254840000000     0.874240000000     0.943790000000    -0.346795   
O378     O      0.269040000000     0.871230000000     0.525370000000    -0.504951   
O379     O      0.208060000000     0.934320000000     0.951530000000    -0.608866   
O380     O      0.273220000000     0.947620000000     0.939930000000    -0.466848   
O381     O      0.188710000000     0.509890000000     0.941040000000    -0.476359   
O382     O      0.286380000000     0.961040000000     0.513300000000    -0.628913   
O383     O      0.258440000000     0.523190000000     0.928190000000    -0.624755   
O384     O      0.216780000000     0.946910000000     0.525670000000    -0.469665   
O385     O      0.902550000000     0.024890000000     0.165890000000    -0.352761   
O386     O      0.938290000000     0.500110000000     0.128610000000    -0.344406   
O387     O      0.990650000000     0.089750000000     0.282760000000    -0.366227   
O388     O      0.473940000000     0.049240000000     0.320000000000    -0.352704   
O389     O      0.973120000000     0.087970000000     0.170630000000    -0.350665   
O390     O      0.487790000000     0.049220000000     0.130440000000    -0.353862   
O391     O      0.886080000000     0.010850000000     0.270360000000    -0.376366   
O392     O      0.921100000000     0.498430000000     0.313900000000    -0.361396   
O393     O      0.855100000000     0.013260000000     0.212770000000    -0.31153    
O394     O      0.875400000000     0.449180000000     0.207930000000    -0.51658    
O395     O      0.949200000000     0.115070000000     0.232300000000    -0.509019   
O396     O      0.530010000000     0.112100000000     0.220060000000    -0.343687   
O397     O      0.950610000000     0.035980000000     0.189910000000    -0.448083   
O398     O      0.943210000000     0.036430000000     0.254510000000    -0.609052   
O399     O      0.469970000000     0.400930000000     0.280070000000    -0.363146   
O400     O      0.974970000000     0.442550000000     0.319290000000    -0.355249   
O401     O      0.583100000000     0.501870000000     0.182350000000    -0.373462   
O402     O      0.547160000000     0.994820000000     0.137990000000    -0.347654   
O403     O      0.570320000000     0.490510000000     0.294140000000    -0.347563   
O404     O      0.522740000000     0.995680000000     0.325950000000    -0.355063   
O405     O      0.497230000000     0.402670000000     0.170180000000    -0.356224   
O406     O      0.994800000000     0.444580000000     0.130190000000    -0.358255   
O407     O      0.522170000000     0.381140000000     0.234530000000    -0.511402   
O408     O      0.940660000000     0.378160000000     0.214560000000    -0.34003    
O409     O      0.590140000000     0.446110000000     0.234790000000    -0.344752   
O410     O      0.602100000000     0.031030000000     0.243190000000    -0.511987   
O411     O      0.516080000000     0.456560000000     0.262380000000    -0.612714   
O412     O      0.524110000000     0.457260000000     0.197140000000    -0.465438   
O413     O      0.939640000000     0.456710000000     0.256910000000    -0.479427   
O414     O      0.527250000000     0.034740000000     0.195090000000    -0.617448   
O415     O      0.947760000000     0.457300000000     0.185360000000    -0.619137   
O416     O      0.519220000000     0.034610000000     0.266170000000    -0.477331   
O417     O      0.566830000000     0.173610000000     0.980130000000    -0.353346   
O418     O      0.517770000000     0.142410000000     0.474730000000    -0.358155   
O419     O      0.468080000000     0.307410000000     0.061950000000    -0.366195   
O420     O      0.989290000000     0.345470000000     0.023930000000    -0.349423   
O421     O      0.486960000000     0.191870000000     0.062260000000    -0.354384   
O422     O      0.971910000000     0.150230000000     0.025450000000    -0.35067    
O423     O      0.582570000000     0.292290000000     0.980670000000    -0.353621   
O424     O      0.545700000000     0.337640000000     0.479390000000    -0.362463   
O425     O      0.585000000000     0.231380000000     0.029090000000    -0.343004   
O426     O      0.603260000000     0.228660000000     0.447200000000    -0.514651   
O427     O      0.509300000000     0.256410000000     0.088780000000    -0.510182   
O428     O      0.928670000000     0.242900000000     0.081830000000    -0.343443   
O429     O      0.510870000000     0.209060000000     0.013460000000    -0.464626   
O430     O      0.520860000000     0.275890000000     0.013580000000    -0.607843   
O431     O      0.006150000000     0.301510000000     0.382410000000    -0.364923   
O432     O      0.498360000000     0.343480000000     0.421560000000    -0.351992   
O433     O      0.880580000000     0.205420000000     0.468190000000    -0.368311   
O434     O      0.915640000000     0.158350000000     0.967940000000    -0.35328    
O435     O      0.900490000000     0.317720000000     0.451730000000    -0.371962   
O436     O      0.945870000000     0.351860000000     0.963590000000    -0.352701   
O437     O      0.965180000000     0.192360000000     0.383870000000    -0.35559    
O438     O      0.467230000000     0.149970000000     0.422740000000    -0.352784   
O439     O      0.961550000000     0.257490000000     0.354560000000    -0.505136   
O440     O      0.535420000000     0.228070000000     0.366430000000    -0.347476   
O441     O      0.875110000000     0.257320000000     0.419860000000    -0.323499   
O442     O      0.864530000000     0.271820000000     0.000790000000    -0.514749   
O443     O      0.954370000000     0.285020000000     0.431660000000    -0.614933   
O444     O      0.943660000000     0.218860000000     0.432410000000    -0.463352   
O445     O      0.530190000000     0.277240000000     0.438940000000    -0.474307   
O446     O      0.934300000000     0.217490000000     0.007660000000    -0.62301    
O447     O      0.518980000000     0.203730000000     0.439040000000    -0.620993   
O448     O      0.944830000000     0.290920000000     0.006810000000    -0.478133   
O449     O      0.771880000000     0.087460000000     0.948680000000    -0.375248   
O450     O      0.820010000000     0.055080000000     0.455360000000    -0.354513   
O451     O      0.697660000000     0.981420000000     0.076230000000    -0.358502   
O452     O      0.651410000000     0.475040000000     0.042720000000    -0.355116   
O453     O      0.810260000000     0.005340000000     0.057270000000    -0.353545   
O454     O      0.838760000000     0.514520000000     0.008250000000    -0.353338   
O455     O      0.663080000000     0.068910000000     0.975390000000    -0.356816   
O456     O      0.635060000000     0.019600000000     0.490800000000    -0.351338   
O457     O      0.723930000000     0.099780000000     0.007410000000    -0.338967   
O458     O      0.705220000000     0.094960000000     0.425010000000    -0.511417   
O459     O      0.742630000000     0.050950000000     0.071900000000    -0.515034   
O460     O      0.763870000000     0.472770000000     0.098240000000    -0.322718   
O461     O      0.767840000000     0.036440000000     0.002670000000    -0.468719   
O462     O      0.703190000000     0.022390000000     0.013900000000    -0.604488   
O463     O      0.667440000000     0.471260000000     0.393700000000    -0.359593   
O464     O      0.636900000000     0.962720000000     0.441100000000    -0.351134   
O465     O      0.814100000000     0.405970000000     0.489860000000    -0.376613   
O466     O      0.842000000000     0.453070000000     0.968760000000    -0.354044   
O467     O      0.705540000000     0.383110000000     0.507710000000    -0.363584   
O468     O      0.657040000000     0.412980000000     0.995510000000    -0.3533     
O469     O      0.779850000000     0.472490000000     0.379230000000    -0.36728    
O470     O      0.823370000000     0.992960000000     0.411610000000    -0.363686   
O471     O      0.723710000000     0.419000000000     0.382310000000    -0.513445   
O472     O      0.718420000000     0.001840000000     0.356700000000    -0.323472   
O473     O      0.754330000000     0.373980000000     0.444070000000    -0.346981   
O474     O      0.768890000000     0.371410000000     0.025540000000    -0.504486   
O475     O      0.707820000000     0.434220000000     0.451770000000    -0.609231   
O476     O      0.773000000000     0.447310000000     0.440050000000    -0.467102   
O477     O      0.688700000000     0.009710000000     0.440890000000    -0.475393   
O478     O      0.786440000000     0.461130000000     0.013290000000    -0.629004   
O479     O      0.758440000000     0.023120000000     0.428220000000    -0.624105   
O480     O      0.716830000000     0.447260000000     0.025860000000    -0.469438   
O481     O      0.902590000000     0.024920000000     0.665880000000    -0.352842   
O482     O      0.938290000000     0.500080000000     0.628610000000    -0.344461   
O483     O      0.990590000000     0.089790000000     0.782740000000    -0.366222   
O484     O      0.473930000000     0.049270000000     0.819990000000    -0.352709   
O485     O      0.973090000000     0.087960000000     0.670600000000    -0.350643   
O486     O      0.487770000000     0.049210000000     0.630410000000    -0.353934   
O487     O      0.886080000000     0.010900000000     0.770330000000    -0.376408   
O488     O      0.921100000000     0.498490000000     0.813870000000    -0.361394   
O489     O      0.855090000000     0.013200000000     0.712730000000    -0.311418   
O490     O      0.875410000000     0.449190000000     0.707900000000    -0.516787   
O491     O      0.949240000000     0.115120000000     0.732250000000    -0.508777   
O492     O      0.530030000000     0.112100000000     0.720020000000    -0.343729   
O493     O      0.950610000000     0.035980000000     0.689890000000    -0.447998   
O494     O      0.943210000000     0.036450000000     0.754490000000    -0.609013   
O495     O      0.469940000000     0.400960000000     0.780080000000    -0.363058   
O496     O      0.974950000000     0.442590000000     0.819290000000    -0.355205   
O497     O      0.583110000000     0.501870000000     0.682340000000    -0.373428   
O498     O      0.547170000000     0.994810000000     0.637980000000    -0.347656   
O499     O      0.570320000000     0.490560000000     0.794140000000    -0.347547   
O500     O      0.522740000000     0.995730000000     0.825940000000    -0.355098   
O501     O      0.497290000000     0.402680000000     0.670200000000    -0.356158   
O502     O      0.994850000000     0.444580000000     0.630190000000    -0.358194   
O503     O      0.522170000000     0.381160000000     0.734570000000    -0.511338   
O504     O      0.940680000000     0.378170000000     0.714540000000    -0.340002   
O505     O      0.590150000000     0.446150000000     0.734810000000    -0.344719   
O506     O      0.602100000000     0.031080000000     0.743170000000    -0.511875   
O507     O      0.516080000000     0.456590000000     0.762380000000    -0.612733   
O508     O      0.524120000000     0.457280000000     0.697140000000    -0.465386   
O509     O      0.939650000000     0.456730000000     0.756910000000    -0.47936    
O510     O      0.527250000000     0.034760000000     0.695070000000    -0.617322   
O511     O      0.947770000000     0.457300000000     0.685360000000    -0.619103   
O512     O      0.519220000000     0.034650000000     0.766160000000    -0.477244   
O513     O      0.566850000000     0.173530000000     0.480100000000    -0.35324    
O514     O      0.517780000000     0.142450000000     0.974740000000    -0.358393   
O515     O      0.468210000000     0.307400000000     0.561940000000    -0.366171   
O516     O      0.989490000000     0.345450000000     0.523940000000    -0.349837   
O517     O      0.486960000000     0.191840000000     0.562220000000    -0.354391   
O518     O      0.971840000000     0.150230000000     0.525410000000    -0.351194   
O519     O      0.582720000000     0.292200000000     0.480410000000    -0.353405   
O520     O      0.545510000000     0.337700000000     0.979600000000    -0.362413   
O521     O      0.584970000000     0.231370000000     0.529140000000    -0.34362    
O522     O      0.603160000000     0.228850000000     0.947130000000    -0.514765   
O523     O      0.509380000000     0.256340000000     0.588760000000    -0.510288   
O524     O      0.928740000000     0.242930000000     0.581800000000    -0.343266   
O525     O      0.510900000000     0.209020000000     0.513420000000    -0.464966   
O526     O      0.520970000000     0.275850000000     0.513570000000    -0.608098   
O527     O      0.006030000000     0.301520000000     0.882430000000    -0.364942   
O528     O      0.498230000000     0.343490000000     0.921580000000    -0.352127   
O529     O      0.880510000000     0.205270000000     0.968480000000    -0.368297   
O530     O      0.915620000000     0.158420000000     0.467690000000    -0.352999   
O531     O      0.900310000000     0.317610000000     0.951770000000    -0.372026   
O532     O      0.946070000000     0.351930000000     0.463620000000    -0.352549   
O533     O      0.965110000000     0.192350000000     0.883910000000    -0.355462   
O534     O      0.467200000000     0.149960000000     0.922790000000    -0.352729   
O535     O      0.961500000000     0.257460000000     0.854570000000    -0.505051   
O536     O      0.535350000000     0.228090000000     0.866460000000    -0.347646   
O537     O      0.875130000000     0.257010000000     0.919780000000    -0.323724   
O538     O      0.864710000000     0.271900000000     0.500880000000    -0.515593   
O539     O      0.954240000000     0.284970000000     0.931690000000    -0.614538   
O540     O      0.943610000000     0.218790000000     0.932440000000    -0.463205   
O541     O      0.530080000000     0.277290000000     0.938950000000    -0.474293   
O542     O      0.934340000000     0.217530000000     0.507620000000    -0.6234     
O543     O      0.518940000000     0.203760000000     0.939060000000    -0.621084   
O544     O      0.944960000000     0.290960000000     0.506800000000    -0.478482   
O545     O      0.771920000000     0.087260000000     0.448720000000    -0.375438   
O546     O      0.819960000000     0.055250000000     0.955260000000    -0.354723   
O547     O      0.697620000000     0.981260000000     0.576240000000    -0.35863    
O548     O      0.651380000000     0.474920000000     0.542720000000    -0.355468   
O549     O      0.810230000000     0.005190000000     0.557310000000    -0.35357    
O550     O      0.838750000000     0.514330000000     0.508290000000    -0.353739   
O551     O      0.663070000000     0.068770000000     0.475360000000    -0.356658   
O552     O      0.635090000000     0.019740000000     0.990850000000    -0.35155    
O553     O      0.723920000000     0.099620000000     0.507440000000    -0.339317   
O554     O      0.705190000000     0.095090000000     0.924980000000    -0.511422   
O555     O      0.742590000000     0.050790000000     0.571920000000    -0.514871   
O556     O      0.763830000000     0.472610000000     0.598270000000    -0.322618   
O557     O      0.767820000000     0.036270000000     0.502700000000    -0.469193   
O558     O      0.703160000000     0.022240000000     0.513910000000    -0.604934   
O559     O      0.667440000000     0.471380000000     0.893700000000    -0.35961    
O560     O      0.636920000000     0.962850000000     0.941110000000    -0.3511     
O561     O      0.814140000000     0.406160000000     0.989840000000    -0.376898   
O562     O      0.841980000000     0.452880000000     0.468820000000    -0.354088   
O563     O      0.705580000000     0.383270000000     0.007680000000    -0.363521   
O564     O      0.657020000000     0.412830000000     0.495490000000    -0.352812   
O565     O      0.779840000000     0.472630000000     0.879210000000    -0.36728    
O566     O      0.823370000000     0.993110000000     0.911580000000    -0.3635     
O567     O      0.723710000000     0.419150000000     0.882290000000    -0.513637   
O568     O      0.718400000000     0.001990000000     0.856690000000    -0.323565   
O569     O      0.754380000000     0.374140000000     0.944040000000    -0.347054   
O570     O      0.768850000000     0.371250000000     0.525570000000    -0.504702   
O571     O      0.707840000000     0.434370000000     0.951760000000    -0.60923    
O572     O      0.773010000000     0.447480000000     0.940020000000    -0.466986   
O573     O      0.688700000000     0.009850000000     0.940880000000    -0.475382   
O574     O      0.786410000000     0.460960000000     0.513320000000    -0.629137   
O575     O      0.758430000000     0.023280000000     0.928200000000    -0.62407    
O576     O      0.716800000000     0.447110000000     0.525870000000    -0.469827   
O577     O      0.902050000000     0.523850000000     0.165880000000    -0.353301   
O578     O      0.938600000000     0.000860000000     0.128580000000    -0.34378    
O579     O      0.989870000000     0.589830000000     0.282590000000    -0.366286   
O580     O      0.473540000000     0.549260000000     0.319920000000    -0.353147   
O581     O      0.972320000000     0.587770000000     0.170470000000    -0.350907   
O582     O      0.487330000000     0.549080000000     0.130340000000    -0.354891   
O583     O      0.885870000000     0.509820000000     0.270370000000    -0.376941   
O584     O      0.921130000000     0.998890000000     0.313880000000    -0.361933   
O585     O      0.854890000000     0.512110000000     0.212850000000    -0.312039   
O586     O      0.875070000000     0.950290000000     0.207820000000    -0.516602   
O587     O      0.947860000000     0.614540000000     0.232170000000    -0.509393   
O588     O      0.528800000000     0.612510000000     0.219860000000    -0.34368    
O589     O      0.950130000000     0.535560000000     0.189820000000    -0.448721   
O590     O      0.942760000000     0.536020000000     0.254470000000    -0.609616   
O591     O      0.469370000000     0.901030000000     0.280010000000    -0.363045   
O592     O      0.974660000000     0.942600000000     0.319270000000    -0.355187   
O593     O      0.583220000000     0.001080000000     0.182260000000    -0.37162    
O594     O      0.547160000000     0.495010000000     0.138060000000    -0.347761   
O595     O      0.570400000000     0.989940000000     0.294070000000    -0.347947   
O596     O      0.522630000000     0.496020000000     0.325990000000    -0.354999   
O597     O      0.496630000000     0.902690000000     0.170130000000    -0.356178   
O598     O      0.994520000000     0.944640000000     0.130180000000    -0.358132   
O599     O      0.521120000000     0.880720000000     0.234390000000    -0.511088   
O600     O      0.939630000000     0.878690000000     0.214430000000    -0.340172   
O601     O      0.589700000000     0.945110000000     0.234760000000    -0.344906   
O602     O      0.601610000000     0.532160000000     0.243270000000    -0.512611   
O603     O      0.515820000000     0.956290000000     0.262330000000    -0.612452   
O604     O      0.523870000000     0.956970000000     0.197100000000    -0.465282   
O605     O      0.939370000000     0.957130000000     0.256870000000    -0.479249   
O606     O      0.526800000000     0.535020000000     0.195040000000    -0.618105   
O607     O      0.947510000000     0.957740000000     0.185320000000    -0.618886   
O608     O      0.518790000000     0.534960000000     0.266110000000    -0.478168   
O609     O      0.566870000000     0.673710000000     0.980070000000    -0.353548   
O610     O      0.517860000000     0.642420000000     0.474710000000    -0.358334   
O611     O      0.467820000000     0.807410000000     0.061870000000    -0.36606    
O612     O      0.989020000000     0.845480000000     0.023840000000    -0.349316   
O613     O      0.486640000000     0.691850000000     0.062390000000    -0.354744   
O614     O      0.971850000000     0.650210000000     0.025470000000    -0.351005   
O615     O      0.582450000000     0.792350000000     0.980390000000    -0.353684   
O616     O      0.545530000000     0.837670000000     0.479280000000    -0.362522   
O617     O      0.584960000000     0.731550000000     0.028990000000    -0.343193   
O618     O      0.603180000000     0.728730000000     0.447080000000    -0.514667   
O619     O      0.509710000000     0.756490000000     0.088460000000    -0.510494   
O620     O      0.928860000000     0.742980000000     0.082010000000    -0.342765   
O621     O      0.510880000000     0.709060000000     0.013440000000    -0.464873   
O622     O      0.520800000000     0.775930000000     0.013490000000    -0.607743   
O623     O      0.005720000000     0.801470000000     0.382300000000    -0.365012   
O624     O      0.498020000000     0.843440000000     0.421460000000    -0.351889   
O625     O      0.880550000000     0.705210000000     0.468250000000    -0.36823    
O626     O      0.915700000000     0.658210000000     0.967950000000    -0.353164   
O627     O      0.900270000000     0.817570000000     0.451800000000    -0.371932   
O628     O      0.945650000000     0.851770000000     0.963530000000    -0.352759   
O629     O      0.964790000000     0.692320000000     0.383970000000    -0.355227   
O630     O      0.467130000000     0.649880000000     0.422790000000    -0.352756   
O631     O      0.961550000000     0.757240000000     0.354390000000    -0.504832   
O632     O      0.535280000000     0.727930000000     0.366450000000    -0.347798   
O633     O      0.874970000000     0.757130000000     0.419920000000    -0.323453   
O634     O      0.864440000000     0.771590000000     0.000880000000    -0.514433   
O635     O      0.954180000000     0.784910000000     0.431650000000    -0.614721   
O636     O      0.943560000000     0.718740000000     0.432450000000    -0.463221   
O637     O      0.530010000000     0.777240000000     0.438840000000    -0.474395   
O638     O      0.934310000000     0.717410000000     0.007700000000    -0.623113   
O639     O      0.518910000000     0.703700000000     0.438990000000    -0.621181   
O640     O      0.944730000000     0.790840000000     0.006790000000    -0.477957   
O641     O      0.772060000000     0.587370000000     0.948520000000    -0.375432   
O642     O      0.820140000000     0.554870000000     0.455140000000    -0.355044   
O643     O      0.697790000000     0.481940000000     0.076360000000    -0.358334   
O644     O      0.651310000000     0.974610000000     0.042530000000    -0.355089   
O645     O      0.810670000000     0.505190000000     0.057190000000    -0.353693   
O646     O      0.838560000000     0.014660000000     0.008450000000    -0.352896   
O647     O      0.663260000000     0.569060000000     0.975470000000    -0.356658   
O648     O      0.635210000000     0.519850000000     0.491070000000    -0.351986   
O649     O      0.724250000000     0.599870000000     0.007370000000    -0.339017   
O650     O      0.705400000000     0.594990000000     0.425010000000    -0.51142    
O651     O      0.743230000000     0.551160000000     0.071880000000    -0.515512   
O652     O      0.763660000000     0.972650000000     0.098160000000    -0.322847   
O653     O      0.768040000000     0.536450000000     0.002630000000    -0.469358   
O654     O      0.703410000000     0.522540000000     0.014000000000    -0.60516    
O655     O      0.667590000000     0.971000000000     0.393530000000    -0.359726   
O656     O      0.636810000000     0.463110000000     0.441330000000    -0.350682   
O657     O      0.814220000000     0.906110000000     0.489840000000    -0.376612   
O658     O      0.842040000000     0.953250000000     0.968750000000    -0.354135   
O659     O      0.705630000000     0.882910000000     0.507240000000    -0.363409   
O660     O      0.657100000000     0.912760000000     0.995050000000    -0.353141   
O661     O      0.780070000000     0.973120000000     0.379100000000    -0.367242   
O662     O      0.823280000000     0.492380000000     0.411550000000    -0.363632   
O663     O      0.724290000000     0.919090000000     0.382090000000    -0.513136   
O664     O      0.718410000000     0.501750000000     0.356810000000    -0.324357   
O665     O      0.754680000000     0.874060000000     0.443810000000    -0.346741   
O666     O      0.768970000000     0.871380000000     0.025360000000    -0.504703   
O667     O      0.707970000000     0.934200000000     0.451540000000    -0.608905   
O668     O      0.773150000000     0.947430000000     0.439950000000    -0.466902   
O669     O      0.688720000000     0.509790000000     0.441040000000    -0.476447   
O670     O      0.786370000000     0.961160000000     0.013260000000    -0.62862    
O671     O      0.758460000000     0.523010000000     0.428200000000    -0.624934   
O672     O      0.716770000000     0.947080000000     0.025650000000    -0.469447   
O673     O      0.902100000000     0.523900000000     0.665870000000    -0.353398   
O674     O      0.938600000000     0.000830000000     0.628580000000    -0.34388    
O675     O      0.989810000000     0.589870000000     0.782560000000    -0.366247   
O676     O      0.473530000000     0.549300000000     0.819910000000    -0.353159   
O677     O      0.972300000000     0.587770000000     0.670440000000    -0.350852   
O678     O      0.487320000000     0.549070000000     0.630310000000    -0.354835   
O679     O      0.885870000000     0.509880000000     0.770330000000    -0.376866   
O680     O      0.921130000000     0.998940000000     0.813860000000    -0.361888   
O681     O      0.854880000000     0.512060000000     0.712810000000    -0.312192   
O682     O      0.875090000000     0.950290000000     0.707800000000    -0.516456   
O683     O      0.947900000000     0.614600000000     0.732110000000    -0.508984   
O684     O      0.528830000000     0.612510000000     0.719820000000    -0.343652   
O685     O      0.950140000000     0.535570000000     0.689800000000    -0.44868    
O686     O      0.942760000000     0.536050000000     0.754440000000    -0.609815   
O687     O      0.469350000000     0.901070000000     0.780020000000    -0.363075   
O688     O      0.974650000000     0.942640000000     0.819270000000    -0.35523    
O689     O      0.583230000000     0.001080000000     0.682250000000    -0.371652   
O690     O      0.547160000000     0.495000000000     0.638060000000    -0.347751   
O691     O      0.570400000000     0.989990000000     0.794070000000    -0.347934   
O692     O      0.522620000000     0.496080000000     0.825980000000    -0.354949   
O693     O      0.496690000000     0.902700000000     0.670150000000    -0.356132   
O694     O      0.994560000000     0.944640000000     0.630180000000    -0.358007   
O695     O      0.521130000000     0.880740000000     0.734430000000    -0.511303   
O696     O      0.939660000000     0.878700000000     0.714420000000    -0.340231   
O697     O      0.589720000000     0.945150000000     0.734780000000    -0.345059   
O698     O      0.601610000000     0.532200000000     0.743250000000    -0.512295   
O699     O      0.515830000000     0.956320000000     0.762330000000    -0.612304   
O700     O      0.523880000000     0.956990000000     0.697100000000    -0.46526    
O701     O      0.939380000000     0.957150000000     0.756860000000    -0.47936    
O702     O      0.526810000000     0.535040000000     0.695020000000    -0.618196   
O703     O      0.947520000000     0.957740000000     0.685320000000    -0.618871   
O704     O      0.518780000000     0.535000000000     0.766100000000    -0.47822    
O705     O      0.566890000000     0.673630000000     0.480020000000    -0.353535   
O706     O      0.517870000000     0.642450000000     0.974730000000    -0.358561   
O707     O      0.467950000000     0.807400000000     0.561850000000    -0.366075   
O708     O      0.989210000000     0.845460000000     0.523850000000    -0.349699   
O709     O      0.486660000000     0.691820000000     0.562350000000    -0.354691   
O710     O      0.971790000000     0.650200000000     0.525430000000    -0.3514     
O711     O      0.582590000000     0.792270000000     0.480120000000    -0.353512   
O712     O      0.545350000000     0.837720000000     0.979490000000    -0.362499   
O713     O      0.584930000000     0.731560000000     0.529030000000    -0.34381    
O714     O      0.603080000000     0.728910000000     0.947020000000    -0.514651   
O715     O      0.509790000000     0.756420000000     0.588440000000    -0.510696   
O716     O      0.928930000000     0.743010000000     0.581980000000    -0.342883   
O717     O      0.510910000000     0.709010000000     0.513400000000    -0.465053   
O718     O      0.520910000000     0.775890000000     0.513480000000    -0.608025   
O719     O      0.005610000000     0.801470000000     0.882320000000    -0.364944   
O720     O      0.497910000000     0.843450000000     0.921470000000    -0.352068   
O721     O      0.880480000000     0.705070000000     0.968530000000    -0.368213   
O722     O      0.915680000000     0.658280000000     0.467690000000    -0.353022   
O723     O      0.900100000000     0.817460000000     0.951840000000    -0.371905   
O724     O      0.945840000000     0.851830000000     0.463560000000    -0.352659   
O725     O      0.964730000000     0.692300000000     0.884010000000    -0.355203   
O726     O      0.467100000000     0.649870000000     0.922840000000    -0.352627   
O727     O      0.961510000000     0.757210000000     0.854390000000    -0.50517    
O728     O      0.535210000000     0.727940000000     0.866480000000    -0.347857   
O729     O      0.875000000000     0.756830000000     0.919840000000    -0.323671   
O730     O      0.864610000000     0.771660000000     0.500970000000    -0.51523    
O731     O      0.954060000000     0.784870000000     0.931670000000    -0.614625   
O732     O      0.943510000000     0.718680000000     0.932470000000    -0.463053   
O733     O      0.529910000000     0.777280000000     0.938860000000    -0.474414   
O734     O      0.934350000000     0.717450000000     0.507650000000    -0.623392   
O735     O      0.518880000000     0.703730000000     0.939020000000    -0.62113    
O736     O      0.944860000000     0.790880000000     0.506790000000    -0.478368   
O737     O      0.772110000000     0.587160000000     0.448550000000    -0.375469   
O738     O      0.820080000000     0.555060000000     0.955050000000    -0.355264   
O739     O      0.697760000000     0.481790000000     0.576380000000    -0.358243   
O740     O      0.651280000000     0.974470000000     0.542530000000    -0.355453   
O741     O      0.810640000000     0.505030000000     0.557220000000    -0.35378    
O742     O      0.838540000000     0.014490000000     0.508490000000    -0.353205   
O743     O      0.663260000000     0.568930000000     0.475440000000    -0.356542   
O744     O      0.635220000000     0.519970000000     0.991110000000    -0.352142   
O745     O      0.724260000000     0.599710000000     0.507400000000    -0.339303   
O746     O      0.705350000000     0.595120000000     0.924990000000    -0.510905   
O747     O      0.743200000000     0.551010000000     0.571900000000    -0.515652   
O748     O      0.763620000000     0.972490000000     0.598180000000    -0.322743   
O749     O      0.768040000000     0.536280000000     0.502650000000    -0.469747   
O750     O      0.703390000000     0.522400000000     0.514010000000    -0.605366   
O751     O      0.667590000000     0.971120000000     0.893530000000    -0.359776   
O752     O      0.636820000000     0.463240000000     0.941340000000    -0.35049    
O753     O      0.814250000000     0.906290000000     0.989810000000    -0.376799   
O754     O      0.842020000000     0.953080000000     0.468810000000    -0.354094   
O755     O      0.705660000000     0.883080000000     0.007230000000    -0.363267   
O756     O      0.657090000000     0.912590000000     0.495000000000    -0.352696   
O757     O      0.780060000000     0.973250000000     0.879070000000    -0.366984   
O758     O      0.823280000000     0.492540000000     0.911520000000    -0.363433   
O759     O      0.724290000000     0.919240000000     0.882070000000    -0.513016   
O760     O      0.718400000000     0.501910000000     0.856800000000    -0.324382   
O761     O      0.754710000000     0.874210000000     0.943790000000    -0.346734   
O762     O      0.768930000000     0.871230000000     0.525390000000    -0.505083   
O763     O      0.707990000000     0.934340000000     0.951530000000    -0.608984   
O764     O      0.773160000000     0.947590000000     0.939920000000    -0.466786   
O765     O      0.688710000000     0.509930000000     0.941040000000    -0.476343   
O766     O      0.786340000000     0.961000000000     0.513290000000    -0.628981   
O767     O      0.758450000000     0.523170000000     0.928180000000    -0.62492    
O768     O      0.716730000000     0.946930000000     0.525670000000    -0.469697   
Zr1      Zr     0.414140000000     0.496160000000     0.218440000000     1.28366    
Zr2      Zr     0.987330000000     0.067040000000     0.226450000000     1.29221    
Zr3      Zr     0.480370000000     0.425160000000     0.224850000000     1.29394    
Zr4      Zr     0.052980000000     0.995150000000     0.234390000000     1.28782    
Zr5      Zr     0.990220000000     0.496500000000     0.163110000000     1.25296    
Zr6      Zr     0.476010000000     0.996350000000     0.287810000000     1.27157    
Zr7      Zr     0.051860000000     0.236300000000     0.478800000000     1.28177    
Zr8      Zr     0.473710000000     0.249050000000     0.040770000000     1.29278    
Zr9      Zr     0.991430000000     0.245100000000     0.405270000000     1.29161    
Zr10     Zr     0.413100000000     0.258010000000     0.967320000000     1.29899    
Zr11     Zr     0.472260000000     0.183200000000     0.473320000000     1.26826    
Zr12     Zr     0.991360000000     0.311210000000     0.972870000000     1.27053    
Zr13     Zr     0.222590000000     0.053750000000     0.466270000000     1.29658    
Zr14     Zr     0.248990000000     0.496450000000     0.044330000000     1.28808    
Zr15     Zr     0.227150000000     0.973880000000     0.410030000000     1.2976     
Zr16     Zr     0.253260000000     0.417010000000     0.988090000000     1.29661    
Zr17     Zr     0.299030000000     0.497520000000     0.466100000000     1.278      
Zr18     Zr     0.176110000000     0.972690000000     0.987600000000     1.25563    
Zr19     Zr     0.414150000000     0.496170000000     0.718420000000     1.28355    
Zr20     Zr     0.987330000000     0.067060000000     0.726420000000     1.29217    
Zr21     Zr     0.480380000000     0.425180000000     0.724860000000     1.29383    
Zr22     Zr     0.052990000000     0.995190000000     0.734380000000     1.28771    
Zr23     Zr     0.990230000000     0.496510000000     0.663100000000     1.25282    
Zr24     Zr     0.476010000000     0.996390000000     0.787800000000     1.27149    
Zr25     Zr     0.051790000000     0.236370000000     0.978830000000     1.28137    
Zr26     Zr     0.473790000000     0.249050000000     0.540740000000     1.29256    
Zr27     Zr     0.991350000000     0.245100000000     0.905290000000     1.2915     
Zr28     Zr     0.413210000000     0.258120000000     0.467290000000     1.29971    
Zr29     Zr     0.472260000000     0.183190000000     0.973360000000     1.26794    
Zr30     Zr     0.991510000000     0.311210000000     0.472860000000     1.27121    
Zr31     Zr     0.222590000000     0.053900000000     0.966250000000     1.29603    
Zr32     Zr     0.248960000000     0.496290000000     0.544350000000     1.2879     
Zr33     Zr     0.227150000000     0.974030000000     0.910010000000     1.29764    
Zr34     Zr     0.253230000000     0.416850000000     0.488120000000     1.2975     
Zr35     Zr     0.299040000000     0.497700000000     0.966060000000     1.27735    
Zr36     Zr     0.176080000000     0.972550000000     0.487600000000     1.25628    
Zr37     Zr     0.414230000000     0.996870000000     0.218420000000     1.2809     
Zr38     Zr     0.986580000000     0.567010000000     0.226330000000     1.29189    
Zr39     Zr     0.479830000000     0.925250000000     0.224790000000     1.2936     
Zr40     Zr     0.052880000000     0.495730000000     0.234420000000     1.29013    
Zr41     Zr     0.990330000000     0.996580000000     0.163150000000     1.25122    
Zr42     Zr     0.475940000000     0.496320000000     0.287810000000     1.27306    
Zr43     Zr     0.051790000000     0.736360000000     0.478700000000     1.28182    
Zr44     Zr     0.473720000000     0.749050000000     0.040760000000     1.29301    
Zr45     Zr     0.991260000000     0.745020000000     0.405230000000     1.29137    
Zr46     Zr     0.413000000000     0.757870000000     0.967370000000     1.29905    
Zr47     Zr     0.472270000000     0.683130000000     0.473340000000     1.26851    
Zr48     Zr     0.991200000000     0.811190000000     0.972790000000     1.27046    
Zr49     Zr     0.222750000000     0.553790000000     0.466280000000     1.29618    
Zr50     Zr     0.248740000000     0.996330000000     0.044260000000     1.28656    
Zr51     Zr     0.227000000000     0.473810000000     0.410170000000     1.29948    
Zr52     Zr     0.253360000000     0.917000000000     0.987910000000     1.2965     
Zr53     Zr     0.299000000000     0.997660000000     0.466140000000     1.27607    
Zr54     Zr     0.176140000000     0.472870000000     0.987820000000     1.25707    
Zr55     Zr     0.414240000000     0.996880000000     0.718410000000     1.28087    
Zr56     Zr     0.986590000000     0.567030000000     0.726300000000     1.29181    
Zr57     Zr     0.479840000000     0.925270000000     0.724790000000     1.29372    
Zr58     Zr     0.052880000000     0.495770000000     0.734420000000     1.29006    
Zr59     Zr     0.990340000000     0.996580000000     0.663140000000     1.25126    
Zr60     Zr     0.475940000000     0.496360000000     0.787800000000     1.2731     
Zr61     Zr     0.051720000000     0.736420000000     0.978720000000     1.28123    
Zr62     Zr     0.473790000000     0.749040000000     0.540730000000     1.29275    
Zr63     Zr     0.991180000000     0.745020000000     0.905250000000     1.29126    
Zr64     Zr     0.413090000000     0.757960000000     0.467350000000     1.29997    
Zr65     Zr     0.472270000000     0.683130000000     0.973390000000     1.26795    
Zr66     Zr     0.991330000000     0.811190000000     0.472780000000     1.27127    
Zr67     Zr     0.222740000000     0.553940000000     0.966270000000     1.29548    
Zr68     Zr     0.248710000000     0.996170000000     0.544280000000     1.2865     
Zr69     Zr     0.226990000000     0.473960000000     0.910160000000     1.29953    
Zr70     Zr     0.253330000000     0.916840000000     0.487930000000     1.29741    
Zr71     Zr     0.299010000000     0.997820000000     0.966110000000     1.27536    
Zr72     Zr     0.176120000000     0.472730000000     0.487830000000     1.25752    
Zr73     Zr     0.914130000000     0.495840000000     0.218390000000     1.28351    
Zr74     Zr     0.487380000000     0.067360000000     0.226320000000     1.2927     
Zr75     Zr     0.980410000000     0.424850000000     0.224570000000     1.29284    
Zr76     Zr     0.552980000000     0.995470000000     0.234460000000     1.28769    
Zr77     Zr     0.490240000000     0.496630000000     0.163160000000     1.25346    
Zr78     Zr     0.976020000000     0.995880000000     0.287750000000     1.27066    
Zr79     Zr     0.551860000000     0.236320000000     0.478430000000     1.28168    
Zr80     Zr     0.973500000000     0.249220000000     0.040910000000     1.29152    
Zr81     Zr     0.491210000000     0.245190000000     0.405060000000     1.29225    
Zr82     Zr     0.913140000000     0.258050000000     0.967270000000     1.29886    
Zr83     Zr     0.972240000000     0.183210000000     0.473540000000     1.26752    
Zr84     Zr     0.491280000000     0.311220000000     0.972770000000     1.27148    
Zr85     Zr     0.722620000000     0.053760000000     0.466260000000     1.29672    
Zr86     Zr     0.748980000000     0.496440000000     0.044320000000     1.28806    
Zr87     Zr     0.727110000000     0.973890000000     0.410020000000     1.29765    
Zr88     Zr     0.753190000000     0.416990000000     0.988080000000     1.29669    
Zr89     Zr     0.799020000000     0.497470000000     0.466080000000     1.27794    
Zr90     Zr     0.676070000000     0.972740000000     0.987600000000     1.25561    
Zr91     Zr     0.914140000000     0.495860000000     0.718370000000     1.28343    
Zr92     Zr     0.487380000000     0.067380000000     0.726290000000     1.29266    
Zr93     Zr     0.980420000000     0.424870000000     0.724580000000     1.29292    
Zr94     Zr     0.552990000000     0.995500000000     0.734450000000     1.28752    
Zr95     Zr     0.490250000000     0.496630000000     0.663150000000     1.25348    
Zr96     Zr     0.976020000000     0.995910000000     0.787740000000     1.2708     
Zr97     Zr     0.551790000000     0.236390000000     0.978450000000     1.28098    
Zr98     Zr     0.973580000000     0.249210000000     0.540880000000     1.29153    
Zr99     Zr     0.491130000000     0.245190000000     0.905090000000     1.29204    
Zr100    Zr     0.913240000000     0.258150000000     0.467240000000     1.29983    
Zr101    Zr     0.972230000000     0.183210000000     0.973580000000     1.26686    
Zr102    Zr     0.491430000000     0.311210000000     0.472760000000     1.27201    
Zr103    Zr     0.722620000000     0.053910000000     0.966240000000     1.29613    
Zr104    Zr     0.748950000000     0.496280000000     0.544340000000     1.28778    
Zr105    Zr     0.727100000000     0.974040000000     0.910010000000     1.29763    
Zr106    Zr     0.753150000000     0.416840000000     0.488100000000     1.29758    
Zr107    Zr     0.799030000000     0.497640000000     0.966050000000     1.27728    
Zr108    Zr     0.676050000000     0.972600000000     0.487600000000     1.25622    
Zr109    Zr     0.914220000000     0.996560000000     0.218370000000     1.28077    
Zr110    Zr     0.486640000000     0.567330000000     0.226190000000     1.29264    
Zr111    Zr     0.979870000000     0.924940000000     0.224510000000     1.29264    
Zr112    Zr     0.552880000000     0.496050000000     0.234490000000     1.28987    
Zr113    Zr     0.490360000000     0.996700000000     0.163200000000     1.25199    
Zr114    Zr     0.975950000000     0.495830000000     0.287750000000     1.27236    
Zr115    Zr     0.551790000000     0.736380000000     0.478330000000     1.28165    
Zr116    Zr     0.973510000000     0.749210000000     0.040880000000     1.29189    
Zr117    Zr     0.491030000000     0.745100000000     0.405030000000     1.29201    
Zr118    Zr     0.913030000000     0.757910000000     0.967310000000     1.2989     
Zr119    Zr     0.972250000000     0.683150000000     0.473550000000     1.26753    
Zr120    Zr     0.491120000000     0.811190000000     0.972700000000     1.27133    
Zr121    Zr     0.722790000000     0.553800000000     0.466270000000     1.29629    
Zr122    Zr     0.748730000000     0.996320000000     0.044250000000     1.28665    
Zr123    Zr     0.726950000000     0.473820000000     0.410170000000     1.29946    
Zr124    Zr     0.753280000000     0.916990000000     0.987900000000     1.29659    
Zr125    Zr     0.798990000000     0.997610000000     0.466130000000     1.276      
Zr126    Zr     0.676110000000     0.472920000000     0.987820000000     1.25705    
Zr127    Zr     0.914230000000     0.996570000000     0.718360000000     1.28081    
Zr128    Zr     0.486650000000     0.567350000000     0.726160000000     1.29247    
Zr129    Zr     0.979880000000     0.924960000000     0.724520000000     1.29264    
Zr130    Zr     0.552880000000     0.496080000000     0.734490000000     1.28968    
Zr131    Zr     0.490360000000     0.996710000000     0.663190000000     1.25194    
Zr132    Zr     0.975950000000     0.495870000000     0.787740000000     1.27223    
Zr133    Zr     0.551720000000     0.736440000000     0.978350000000     1.28116    
Zr134    Zr     0.973580000000     0.749200000000     0.540860000000     1.29174    
Zr135    Zr     0.490960000000     0.745100000000     0.905060000000     1.29181    
Zr136    Zr     0.913130000000     0.758000000000     0.467290000000     1.29982    
Zr137    Zr     0.972240000000     0.683150000000     0.973600000000     1.26704    
Zr138    Zr     0.491260000000     0.811180000000     0.472680000000     1.2719     
Zr139    Zr     0.722780000000     0.553950000000     0.966260000000     1.29566    
Zr140    Zr     0.748700000000     0.996160000000     0.544270000000     1.28657    
Zr141    Zr     0.726950000000     0.473970000000     0.910150000000     1.29958    
Zr142    Zr     0.753250000000     0.916830000000     0.487920000000     1.29742    
Zr143    Zr     0.799000000000     0.997770000000     0.966100000000     1.27529    
Zr144    Zr     0.676080000000     0.472780000000     0.487820000000     1.25755    


