data_structure

_audit_creation_method RASPA-1.0
_audit_creation_date 2023-5-19
_audit_author_name 'Poobodin Mano'

_cell_length_a    30.4112
_cell_length_b    42.0466
_cell_length_c    27.6216
_cell_angle_alpha 89.9988
_cell_angle_beta  89.9988
_cell_angle_gamma 89.9534
_cell_volume      35319.4

_symmetry_cell_setting          triclinic
_symmetry_space_group_name_Hall 'P 1'
_symmetry_space_group_name_H-M  'P 1'
_symmetry_Int_Tables_number     1

_symmetry_equiv_pos_as_xyz 'x,y,z'

loop_
_atom_site_label
_atom_site_type_symbol
_atom_site_fract_x
_atom_site_fract_y
_atom_site_fract_z
_atom_site_charge
C1       C      0.456100000000     0.414340000000     0.091650000000     0.405656   
C2       C      0.010980000000     0.078080000000     0.441530000000     0.396069   
C3       C      0.465830000000     0.417210000000     0.429340000000     0.403623   
C4       C      0.015930000000     0.073350000000     0.115890000000     0.412095   
C5       C      0.149550000000     0.048090000000     0.127540000000     0.406202   
C6       C      0.122550000000     0.395870000000     0.436340000000     0.405103   
C7       C      0.165230000000     0.059550000000     0.455650000000     0.402662   
C8       C      0.117710000000     0.387340000000     0.095120000000     0.403287   
C9       C      0.417470000000     0.293760000000     0.341790000000     0.403341   
C10      C      0.369570000000     0.137300000000     0.154510000000     0.415848   
C11      C      0.428430000000     0.296540000000     0.178300000000     0.407404   
C12      C      0.373500000000     0.132650000000     0.329290000000     0.398403   
C13      C      0.218770000000     0.151080000000     0.313150000000     0.403258   
C14      C      0.267050000000     0.322880000000     0.174080000000     0.404179   
C15      C      0.236390000000     0.162030000000     0.141860000000     0.408949   
C16      C      0.260950000000     0.314830000000     0.332350000000     0.40711    
C17      C      0.175360000000     0.101190000000     0.153430000000    -0.00522529 
C18      C      0.210910000000     0.108810000000     0.116120000000    -0.00533134 
C19      C      0.180350000000     0.121130000000     0.377800000000    -0.0113473  
C20      C      0.203160000000     0.089400000000     0.390470000000    -0.01059    
C21      C      0.214150000000     0.352540000000     0.121260000000    -0.00642472 
C22      C      0.170420000000     0.357480000000     0.147880000000    -0.00978522 
C23      C      0.457460000000     0.102350000000     0.157150000000    -0.00788962 
C24      C      0.428060000000     0.108510000000     0.113010000000    -0.00311536 
C25      C      0.434180000000     0.363840000000     0.409030000000    -0.0100121  
C26      C      0.448700000000     0.347240000000     0.362340000000    -0.00994015 
C27      C      0.418020000000     0.105280000000     0.393320000000    -0.0066447  
C28      C      0.466550000000     0.105570000000     0.377550000000    -0.00994271 
C29      C      0.180080000000     0.371530000000     0.384770000000    -0.0127099  
C30      C      0.203030000000     0.339140000000     0.383410000000    -0.00894049 
C31      C      0.429170000000     0.360330000000     0.112250000000    -0.00769794 
C32      C      0.454810000000     0.350680000000     0.157570000000    -0.00645342 
H1       H      0.485190000000     0.041170000000     0.024140000000     0.189533   
H2       H      0.054800000000     0.444660000000     0.417000000000     0.193144   
H3       H      0.165480000000     0.013870000000     0.030490000000     0.196403   
H4       H      0.046700000000     0.436110000000     0.118930000000     0.191897   
H5       H      0.035840000000     0.006550000000     0.354080000000     0.156049   
H6       H      0.140200000000     0.498060000000     0.346670000000     0.203717   
H7       H      0.215320000000     0.461350000000     0.482620000000     0.134611   
H8       H      0.216490000000     0.443590000000     0.092150000000     0.201689   
H9       H      0.094370000000     0.471030000000     0.192700000000     0.133796   
H10      H      0.495080000000     0.462350000000     0.192140000000     0.194964   
H11      H      0.416260000000     0.022950000000     0.070390000000     0.125266   
H12      H      0.406620000000     0.005790000000     0.476720000000     0.194302   
H13      H      0.221960000000     0.483130000000     0.089510000000     0.194135   
H14      H      0.005180000000     0.001110000000     0.200210000000     0.219921   
H15      H      0.410370000000     0.016240000000     0.418370000000     0.20611    
H16      H      0.112700000000     0.463600000000     0.346390000000     0.19465    
H17      H      0.399760000000     0.169470000000     0.247710000000     0.192096   
H18      H      0.339550000000     0.274050000000     0.151100000000     0.194488   
H19      H      0.219520000000     0.196550000000     0.237720000000     0.196565   
H20      H      0.328110000000     0.266260000000     0.352890000000     0.19359    
H21      H      0.366800000000     0.213310000000     0.079320000000     0.135918   
H22      H      0.294620000000     0.249320000000     0.071900000000     0.189594   
H23      H      0.175760000000     0.260240000000     0.201480000000     0.136716   
H24      H      0.158370000000     0.232730000000     0.289240000000     0.19042    
H25      H      0.269890000000     0.210110000000     0.413750000000     0.140468   
H26      H      0.355680000000     0.229570000000     0.425540000000     0.191258   
H27      H      0.465860000000     0.188090000000     0.299620000000     0.126576   
H28      H      0.477210000000     0.190290000000     0.154530000000     0.201985   
H29      H      0.161260000000     0.249770000000     0.343920000000     0.203879   
H30      H      0.390600000000     0.198870000000     0.428750000000     0.204566   
H31      H      0.483170000000     0.207670000000     0.208650000000     0.193907   
H32      H      0.239970000000     0.253710000000     0.069320000000     0.205506   
H33      H      0.189380000000     0.056170000000     0.187340000000     0.102975   
H34      H      0.196870000000     0.153720000000     0.081910000000     0.101569   
H35      H      0.143310000000     0.111580000000     0.142090000000     0.0475581  
H36      H      0.184160000000     0.111900000000     0.188930000000     0.0424854  
H37      H      0.202170000000     0.098020000000     0.080670000000     0.0419044  
H38      H      0.242990000000     0.098500000000     0.127540000000     0.0478547  
H39      H      0.181250000000     0.110980000000     0.302480000000     0.0979531  
H40      H      0.202780000000     0.099710000000     0.465760000000     0.0980647  
H41      H      0.192090000000     0.140390000000     0.402220000000     0.0424001  
H42      H      0.144280000000     0.118540000000     0.382870000000     0.0399027  
H43      H      0.239210000000     0.091930000000     0.385140000000     0.040863   
H44      H      0.191220000000     0.070110000000     0.366230000000     0.0425032  
H45      H      0.264160000000     0.372080000000     0.168040000000     0.0992011  
H46      H      0.120260000000     0.338140000000     0.101100000000     0.100585   
H47      H      0.219860000000     0.373030000000     0.096600000000     0.0333254  
H48      H      0.212460000000     0.330810000000     0.098390000000     0.0430353  
H49      H      0.172160000000     0.379160000000     0.170860000000     0.0472897  
H50      H      0.164670000000     0.336950000000     0.172440000000     0.0390879  
H51      H      0.021130000000     0.120110000000     0.138480000000     0.0976147  
H52      H      0.364440000000     0.090610000000     0.131590000000     0.104338   
H53      H      0.446670000000     0.080520000000     0.176580000000     0.0457435  
H54      H      0.455330000000     0.122550000000     0.183010000000     0.02997    
H55      H      0.430280000000     0.088350000000     0.087090000000     0.0297108  
H56      H      0.438780000000     0.130390000000     0.093660000000     0.0389456  
H57      H      0.416630000000     0.409340000000     0.378740000000     0.100272   
H58      H      0.466090000000     0.301810000000     0.392990000000     0.100641   
H59      H      0.454160000000     0.354910000000     0.439890000000     0.0480974  
H60      H      0.399310000000     0.357670000000     0.416560000000     0.0383961  
H61      H      0.483550000000     0.353430000000     0.354760000000     0.0381496  
H62      H      0.428660000000     0.356130000000     0.331500000000     0.0478439  
H63      H      0.377180000000     0.083590000000     0.338090000000     0.0991373  
H64      H      0.007570000000     0.127150000000     0.432730000000     0.0992282  
H65      H      0.411290000000     0.125940000000     0.417370000000     0.0400847  
H66      H      0.411730000000     0.083450000000     0.414910000000     0.0351668  
H67      H      0.472850000000     0.127430000000     0.356030000000     0.0392924  
H68      H      0.473260000000     0.084950000000     0.353430000000     0.0452294  
H69      H      0.124220000000     0.348130000000     0.418330000000     0.0985867  
H70      H      0.258950000000     0.362600000000     0.350070000000     0.100945   
H71      H      0.170770000000     0.378770000000     0.347440000000     0.0393986  
H72      H      0.203470000000     0.389340000000     0.399740000000     0.0468812  
H73      H      0.179690000000     0.321360000000     0.368250000000     0.0404533  
H74      H      0.212180000000     0.331850000000     0.420760000000     0.0386183  
H75      H      0.399470000000     0.404980000000     0.130870000000     0.100785   
H76      H      0.484660000000     0.306160000000     0.138550000000     0.101995   
H77      H      0.395760000000     0.349660000000     0.113550000000     0.0371305  
H78      H      0.445770000000     0.351190000000     0.079160000000     0.0465567  
H79      H      0.438120000000     0.359720000000     0.190670000000     0.0446021  
H80      H      0.488180000000     0.361450000000     0.156360000000     0.0354452  
N1       N      0.171620000000     0.066820000000     0.159230000000    -0.216464   
N2       N      0.214530000000     0.143180000000     0.110180000000    -0.216756   
N3       N      0.189100000000     0.128910000000     0.327330000000    -0.215603   
N4       N      0.194710000000     0.081750000000     0.441050000000    -0.214418   
N5       N      0.250850000000     0.350610000000     0.155790000000    -0.215954   
N6       N      0.133730000000     0.359550000000     0.113360000000    -0.215137   
N7       N      0.002630000000     0.099200000000     0.140980000000    -0.21927    
N8       N      0.382880000000     0.111560000000     0.129190000000    -0.220648   
N9       N      0.437690000000     0.398490000000     0.403740000000    -0.214398   
N10      N      0.445270000000     0.312580000000     0.367680000000    -0.214471   
N11      N      0.388000000000     0.105540000000     0.351280000000    -0.215209   
N12      N      0.496590000000     0.105220000000     0.419570000000    -0.213867   
N13      N      0.140470000000     0.369950000000     0.414780000000    -0.215852   
N14      N      0.242780000000     0.340750000000     0.353630000000    -0.216355   
N15      N      0.424980000000     0.394870000000     0.110620000000    -0.216638   
N16      N      0.459220000000     0.316150000000     0.159040000000    -0.216467   
O1       O      0.452610000000     0.444060000000     0.101610000000    -0.380196   
O2       O      0.487160000000     0.402180000000     0.065680000000    -0.37345    
O3       O      0.495000000000     0.051530000000     0.426690000000    -0.37563    
O4       O      0.039720000000     0.080530000000     0.476000000000    -0.370386   
O5       O      0.464370000000     0.447400000000     0.421230000000    -0.374284   
O6       O      0.491960000000     0.404020000000     0.460030000000    -0.374489   
O7       O      0.494740000000     0.046910000000     0.121170000000    -0.377959   
O8       O      0.047580000000     0.077520000000     0.086350000000    -0.3842     
O9       O      0.420220000000     0.007710000000     0.097370000000    -0.324273   
O10      O      0.499350000000     0.483390000000     0.178880000000    -0.531964   
O11      O      0.423980000000     0.008480000000     0.447710000000    -0.514399   
O12      O      0.006960000000     0.496600000000     0.360690000000    -0.350351   
O13      O      0.489660000000     0.463940000000     0.017840000000    -0.496329   
O14      O      0.006120000000     0.023870000000     0.023390000000    -0.623111   
O15      O      0.151270000000     0.017950000000     0.134830000000    -0.373112   
O16      O      0.128400000000     0.061380000000     0.092500000000    -0.359451   
O17      O      0.140910000000     0.423210000000     0.429500000000    -0.375271   
O18      O      0.088430000000     0.391250000000     0.462880000000    -0.375717   
O19      O      0.163780000000     0.032000000000     0.434450000000    -0.361007   
O20      O      0.141140000000     0.067450000000     0.491470000000    -0.392278   
O21      O      0.135310000000     0.413620000000     0.109100000000    -0.380273   
O22      O      0.085670000000     0.385650000000     0.064690000000    -0.374226   
O23      O      0.203420000000     0.464540000000     0.091800000000    -0.531242   
O24      O      0.121830000000     0.460550000000     0.181890000000    -0.340955   
O25      O      0.208800000000     0.470750000000     0.450540000000    -0.341561   
O26      O      0.127100000000     0.480510000000     0.364010000000    -0.530986   
O27      O      0.136820000000     0.004210000000     0.027440000000    -0.620013   
O28      O      0.118980000000     0.444960000000     0.019250000000    -0.495127   
O29      O      0.069560000000     0.010380000000     0.097940000000    -0.485708   
O30      O      0.057490000000     0.457090000000     0.446260000000    -0.628063   
O31      O      0.051620000000     0.450770000000     0.092550000000    -0.631573   
O32      O      0.073400000000     0.018010000000     0.451760000000    -0.488535   
O33      O      0.418890000000     0.263600000000     0.350140000000    -0.373791   
O34      O      0.391710000000     0.306830000000     0.310620000000    -0.374634   
O35      O      0.390640000000     0.163790000000     0.149280000000    -0.386667   
O36      O      0.338080000000     0.132990000000     0.184220000000    -0.383713   
O37      O      0.432110000000     0.266830000000     0.168260000000    -0.378005   
O38      O      0.397490000000     0.308550000000     0.204610000000    -0.373382   
O39      O      0.389270000000     0.159240000000     0.344180000000    -0.385669   
O40      O      0.344890000000     0.130090000000     0.294700000000    -0.370522   
O41      O      0.460540000000     0.202970000000     0.326770000000    -0.340024   
O42      O      0.374500000000     0.214250000000     0.409700000000    -0.525674   
O43      O      0.464990000000     0.202350000000     0.181130000000    -0.526663   
O44      O      0.391730000000     0.226060000000     0.091730000000    -0.353546   
O45      O      0.395010000000     0.246790000000     0.253680000000    -0.496423   
O46      O      0.378770000000     0.186720000000     0.248160000000    -0.636613   
O47      O      0.219930000000     0.178660000000     0.334260000000    -0.371605   
O48      O      0.243350000000     0.143130000000     0.277750000000    -0.392316   
O49      O      0.249670000000     0.296530000000     0.160090000000    -0.382197   
O50      O      0.299010000000     0.324710000000     0.204580000000    -0.374132   
O51      O      0.234610000000     0.192130000000     0.134390000000    -0.378539   
O52      O      0.257410000000     0.148860000000     0.177120000000    -0.35937    
O53      O      0.242650000000     0.287470000000     0.339180000000    -0.373777   
O54      O      0.295280000000     0.319450000000     0.306130000000    -0.375234   
O55      O      0.175550000000     0.239710000000     0.316670000000    -0.524847   
O56      O      0.255060000000     0.230380000000     0.405580000000    -0.356925   
O57      O      0.181760000000     0.245460000000     0.174360000000    -0.352156   
O58      O      0.266320000000     0.249460000000     0.087790000000    -0.523268   
O59      O      0.248120000000     0.206250000000     0.241270000000    -0.633764   
O60      O      0.265620000000     0.265500000000     0.249380000000    -0.495347   
O61      O      0.310280000000     0.192720000000     0.318370000000    -0.50151    
O62      O      0.334290000000     0.259500000000     0.177550000000    -0.63247    
O63      O      0.325950000000     0.253710000000     0.323690000000    -0.627618   
O64      O      0.316660000000     0.199960000000     0.172230000000    -0.501427   
Zr1      Zr     0.496990000000     0.491500000000     0.092530000000     1.37862    
Zr2      Zr     0.001290000000     0.495930000000     0.448600000000     1.37763    
Zr3      Zr     0.124590000000     0.470420000000     0.095100000000     1.38439    
Zr4      Zr     0.129600000000     0.479120000000     0.451210000000     1.36685    
Zr5      Zr     0.045970000000     0.424690000000     0.016340000000     1.37221    
Zr6      Zr     0.079620000000     0.042850000000     0.028730000000     1.38679    
Zr7      Zr     0.382260000000     0.214930000000     0.322860000000     1.37701    
Zr8      Zr     0.389120000000     0.218910000000     0.179130000000     1.3802     
Zr9      Zr     0.254000000000     0.231550000000     0.317470000000     1.36547    
Zr10     Zr     0.261430000000     0.239800000000     0.173610000000     1.38409    
Zr11     Zr     0.338500000000     0.285910000000     0.253590000000     1.37342    
Zr12     Zr     0.305410000000     0.167670000000     0.241420000000     1.38424    
C33      C      0.456100000000     0.414340000000     0.591650000000     0.405516   
C34      C      0.010980000000     0.078080000000     0.941530000000     0.396284   
C35      C      0.465830000000     0.417210000000     0.929340000000     0.40363    
C36      C      0.015930000000     0.073350000000     0.615900000000     0.411998   
C37      C      0.149550000000     0.048090000000     0.627540000000     0.406411   
C38      C      0.122550000000     0.395870000000     0.936350000000     0.40515    
C39      C      0.165230000000     0.059550000000     0.955650000000     0.402714   
C40      C      0.117710000000     0.387340000000     0.595120000000     0.403173   
C41      C      0.417470000000     0.293760000000     0.841790000000     0.403348   
C42      C      0.369570000000     0.137300000000     0.654510000000     0.415854   
C43      C      0.428430000000     0.296540000000     0.678300000000     0.40748    
C44      C      0.373500000000     0.132650000000     0.829290000000     0.398407   
C45      C      0.218770000000     0.151080000000     0.813150000000     0.403262   
C46      C      0.267050000000     0.322880000000     0.674090000000     0.404157   
C47      C      0.236390000000     0.162030000000     0.641870000000     0.408988   
C48      C      0.260950000000     0.314830000000     0.832350000000     0.407156   
C49      C      0.175360000000     0.101190000000     0.653430000000    -0.00525097 
C50      C      0.210910000000     0.108820000000     0.616120000000    -0.00520925 
C51      C      0.180350000000     0.121130000000     0.877800000000    -0.0113319  
C52      C      0.203160000000     0.089400000000     0.890470000000    -0.0105872  
C53      C      0.214150000000     0.352540000000     0.621260000000    -0.00642891 
C54      C      0.170420000000     0.357480000000     0.647880000000    -0.00976412 
C55      C      0.457460000000     0.102350000000     0.657160000000    -0.00794147 
C56      C      0.428060000000     0.108510000000     0.613010000000    -0.00310089 
C57      C      0.434180000000     0.363840000000     0.909030000000    -0.0100192  
C58      C      0.448700000000     0.347240000000     0.862340000000    -0.00993222 
C59      C      0.418020000000     0.105280000000     0.893320000000    -0.0066334  
C60      C      0.466550000000     0.105570000000     0.877550000000    -0.00993219 
C61      C      0.180080000000     0.371530000000     0.884770000000    -0.012692   
C62      C      0.203030000000     0.339140000000     0.883410000000    -0.00897445 
C63      C      0.429170000000     0.360330000000     0.612250000000    -0.00768378 
C64      C      0.454810000000     0.350680000000     0.657570000000    -0.0064512  
H81      H      0.485190000000     0.041170000000     0.524140000000     0.189594   
H82      H      0.054800000000     0.444660000000     0.917000000000     0.192978   
H83      H      0.165480000000     0.013880000000     0.530490000000     0.196256   
H84      H      0.046700000000     0.436110000000     0.618940000000     0.191625   
H85      H      0.035840000000     0.006550000000     0.854080000000     0.156063   
H86      H      0.140200000000     0.498060000000     0.846660000000     0.203651   
H87      H      0.215320000000     0.461350000000     0.982620000000     0.134683   
H88      H      0.216490000000     0.443590000000     0.592150000000     0.201718   
H89      H      0.094370000000     0.471030000000     0.692700000000     0.133695   
H90      H      0.495080000000     0.462350000000     0.692140000000     0.194968   
H91      H      0.416260000000     0.022950000000     0.570390000000     0.125312   
H92      H      0.406620000000     0.005790000000     0.976720000000     0.194382   
H93      H      0.221960000000     0.483130000000     0.589510000000     0.194171   
H94      H      0.005180000000     0.001110000000     0.700210000000     0.219926   
H95      H      0.410370000000     0.016240000000     0.918370000000     0.206127   
H96      H      0.112700000000     0.463600000000     0.846390000000     0.194634   
H97      H      0.399760000000     0.169470000000     0.747720000000     0.192089   
H98      H      0.339550000000     0.274050000000     0.651100000000     0.194505   
H99      H      0.219520000000     0.196550000000     0.737720000000     0.196545   
H100     H      0.328110000000     0.266260000000     0.852890000000     0.193599   
H101     H      0.366800000000     0.213310000000     0.579320000000     0.135947   
H102     H      0.294620000000     0.249320000000     0.571900000000     0.189635   
H103     H      0.175760000000     0.260240000000     0.701490000000     0.136633   
H104     H      0.158370000000     0.232730000000     0.789240000000     0.19037    
H105     H      0.269890000000     0.210110000000     0.913750000000     0.140489   
H106     H      0.355680000000     0.229570000000     0.925540000000     0.191296   
H107     H      0.465860000000     0.188090000000     0.799630000000     0.126655   
H108     H      0.477210000000     0.190290000000     0.654530000000     0.202088   
H109     H      0.161260000000     0.249770000000     0.843910000000     0.204109   
H110     H      0.390600000000     0.198870000000     0.928750000000     0.204607   
H111     H      0.483170000000     0.207670000000     0.708650000000     0.193813   
H112     H      0.239970000000     0.253710000000     0.569320000000     0.205551   
H113     H      0.189380000000     0.056170000000     0.687330000000     0.102991   
H114     H      0.196870000000     0.153720000000     0.581910000000     0.101609   
H115     H      0.143310000000     0.111580000000     0.642090000000     0.0475648  
H116     H      0.184160000000     0.111900000000     0.688930000000     0.0424842  
H117     H      0.202170000000     0.098020000000     0.580660000000     0.0419075  
H118     H      0.242990000000     0.098500000000     0.627540000000     0.0478353  
H119     H      0.181250000000     0.110980000000     0.802480000000     0.0979526  
H120     H      0.202780000000     0.099710000000     0.965760000000     0.0981135  
H121     H      0.192090000000     0.140390000000     0.902230000000     0.0424111  
H122     H      0.144280000000     0.118540000000     0.882870000000     0.0399091  
H123     H      0.239210000000     0.091930000000     0.885140000000     0.040875   
H124     H      0.191220000000     0.070110000000     0.866230000000     0.0425084  
H125     H      0.264170000000     0.372080000000     0.668040000000     0.0991565  
H126     H      0.120260000000     0.338140000000     0.601100000000     0.100615   
H127     H      0.219860000000     0.373030000000     0.596610000000     0.0333689  
H128     H      0.212460000000     0.330810000000     0.598390000000     0.0430707  
H129     H      0.172160000000     0.379160000000     0.670870000000     0.047278   
H130     H      0.164670000000     0.336950000000     0.672440000000     0.0390828  
H131     H      0.021130000000     0.120110000000     0.638480000000     0.0975891  
H132     H      0.364440000000     0.090610000000     0.631590000000     0.104354   
H133     H      0.446670000000     0.080520000000     0.676580000000     0.0457569  
H134     H      0.455330000000     0.122550000000     0.683000000000     0.0299881  
H135     H      0.430280000000     0.088350000000     0.587090000000     0.0297449  
H136     H      0.438780000000     0.130390000000     0.593660000000     0.0389763  
H137     H      0.416630000000     0.409340000000     0.878740000000     0.10028    
H138     H      0.466090000000     0.301810000000     0.892990000000     0.100664   
H139     H      0.454160000000     0.354910000000     0.939890000000     0.0481377  
H140     H      0.399310000000     0.357670000000     0.916560000000     0.0384267  
H141     H      0.483550000000     0.353430000000     0.854760000000     0.0381518  
H142     H      0.428660000000     0.356130000000     0.831500000000     0.0478422  
H143     H      0.377180000000     0.083590000000     0.838090000000     0.0991399  
H144     H      0.007570000000     0.127150000000     0.932730000000     0.099265   
H145     H      0.411290000000     0.125940000000     0.917380000000     0.0401022  
H146     H      0.411730000000     0.083450000000     0.914910000000     0.0351845  
H147     H      0.472850000000     0.127430000000     0.856030000000     0.0392902  
H148     H      0.473260000000     0.084950000000     0.853430000000     0.0452229  
H149     H      0.124220000000     0.348130000000     0.918330000000     0.0986042  
H150     H      0.258950000000     0.362600000000     0.850070000000     0.100965   
H151     H      0.170770000000     0.378770000000     0.847440000000     0.0393968  
H152     H      0.203470000000     0.389340000000     0.899740000000     0.0468913  
H153     H      0.179690000000     0.321360000000     0.868260000000     0.040466   
H154     H      0.212180000000     0.331850000000     0.920760000000     0.0386557  
H155     H      0.399470000000     0.404980000000     0.630870000000     0.100796   
H156     H      0.484660000000     0.306160000000     0.638540000000     0.101989   
H157     H      0.395760000000     0.349660000000     0.613550000000     0.0371525  
H158     H      0.445770000000     0.351190000000     0.579150000000     0.0465964  
H159     H      0.438120000000     0.359720000000     0.690670000000     0.0446033  
H160     H      0.488180000000     0.361450000000     0.656360000000     0.0354552  
N17      N      0.171620000000     0.066820000000     0.659220000000    -0.21653    
N18      N      0.214530000000     0.143180000000     0.610180000000    -0.216743   
N19      N      0.189100000000     0.128910000000     0.827330000000    -0.215603   
N20      N      0.194710000000     0.081750000000     0.941050000000    -0.214417   
N21      N      0.250850000000     0.350610000000     0.655780000000    -0.215877   
N22      N      0.133730000000     0.359550000000     0.613360000000    -0.215108   
N23      N      0.002620000000     0.099200000000     0.640980000000    -0.219242   
N24      N      0.382880000000     0.111560000000     0.629190000000    -0.220642   
N25      N      0.437690000000     0.398490000000     0.903740000000    -0.214388   
N26      N      0.445270000000     0.312580000000     0.867680000000    -0.214471   
N27      N      0.388000000000     0.105540000000     0.851280000000    -0.215208   
N28      N      0.496590000000     0.105220000000     0.919570000000    -0.213885   
N29      N      0.140470000000     0.369950000000     0.914780000000    -0.215831   
N30      N      0.242780000000     0.340750000000     0.853620000000    -0.216376   
N31      N      0.424980000000     0.394870000000     0.610620000000    -0.216594   
N32      N      0.459220000000     0.316150000000     0.659040000000    -0.216454   
O65      O      0.452610000000     0.444060000000     0.601620000000    -0.380127   
O66      O      0.487160000000     0.402170000000     0.565680000000    -0.373322   
O67      O      0.495000000000     0.051530000000     0.926690000000    -0.375725   
O68      O      0.039720000000     0.080530000000     0.975990000000    -0.370349   
O69      O      0.464370000000     0.447400000000     0.921230000000    -0.374268   
O70      O      0.491960000000     0.404020000000     0.960030000000    -0.374369   
O71      O      0.494740000000     0.046910000000     0.621170000000    -0.377889   
O72      O      0.047580000000     0.077520000000     0.586350000000    -0.384102   
O73      O      0.420220000000     0.007710000000     0.597370000000    -0.324236   
O74      O      0.499350000000     0.483390000000     0.678880000000    -0.531962   
O75      O      0.423980000000     0.008480000000     0.947710000000    -0.514438   
O76      O      0.006960000000     0.496600000000     0.860690000000    -0.350374   
O77      O      0.489660000000     0.463940000000     0.517840000000    -0.496234   
O78      O      0.006120000000     0.023870000000     0.523390000000    -0.622945   
O79      O      0.151270000000     0.017960000000     0.634830000000    -0.373306   
O80      O      0.128400000000     0.061380000000     0.592490000000    -0.359498   
O81      O      0.140910000000     0.423210000000     0.929500000000    -0.375257   
O82      O      0.088430000000     0.391250000000     0.962880000000    -0.375655   
O83      O      0.163780000000     0.032010000000     0.934450000000    -0.360995   
O84      O      0.141140000000     0.067450000000     0.991480000000    -0.392108   
O85      O      0.135310000000     0.413620000000     0.609100000000    -0.380254   
O86      O      0.085670000000     0.385640000000     0.564680000000    -0.37408    
O87      O      0.203420000000     0.464540000000     0.591800000000    -0.531225   
O88      O      0.121840000000     0.460550000000     0.681890000000    -0.340915   
O89      O      0.208800000000     0.470750000000     0.950540000000    -0.341558   
O90      O      0.127100000000     0.480510000000     0.864010000000    -0.530983   
O91      O      0.136820000000     0.004200000000     0.527440000000    -0.619853   
O92      O      0.118980000000     0.444960000000     0.519260000000    -0.495013   
O93      O      0.069560000000     0.010380000000     0.597940000000    -0.485773   
O94      O      0.057490000000     0.457090000000     0.946270000000    -0.627899   
O95      O      0.051620000000     0.450770000000     0.592540000000    -0.631411   
O96      O      0.073400000000     0.018010000000     0.951760000000    -0.48838    
O97      O      0.418890000000     0.263600000000     0.850140000000    -0.373785   
O98      O      0.391710000000     0.306830000000     0.810620000000    -0.374639   
O99      O      0.390640000000     0.163790000000     0.649280000000    -0.386661   
O100     O      0.338080000000     0.132990000000     0.684220000000    -0.38371    
O101     O      0.432110000000     0.266830000000     0.668260000000    -0.378005   
O102     O      0.397490000000     0.308550000000     0.704600000000    -0.373414   
O103     O      0.389270000000     0.159240000000     0.844180000000    -0.385665   
O104     O      0.344890000000     0.130090000000     0.794700000000    -0.37052    
O105     O      0.460540000000     0.202970000000     0.826770000000    -0.340092   
O106     O      0.374500000000     0.214250000000     0.909700000000    -0.525685   
O107     O      0.464990000000     0.202350000000     0.681120000000    -0.526652   
O108     O      0.391730000000     0.226060000000     0.591730000000    -0.353503   
O109     O      0.395010000000     0.246790000000     0.753680000000    -0.496429   
O110     O      0.378770000000     0.186720000000     0.748170000000    -0.636614   
O111     O      0.219930000000     0.178660000000     0.834260000000    -0.371588   
O112     O      0.243350000000     0.143130000000     0.777750000000    -0.392312   
O113     O      0.249670000000     0.296530000000     0.660090000000    -0.382156   
O114     O      0.299010000000     0.324710000000     0.704580000000    -0.374168   
O115     O      0.234610000000     0.192130000000     0.634390000000    -0.378528   
O116     O      0.257410000000     0.148860000000     0.677120000000    -0.359438   
O117     O      0.242650000000     0.287470000000     0.839180000000    -0.37379    
O118     O      0.295280000000     0.319450000000     0.806130000000    -0.375243   
O119     O      0.175550000000     0.239710000000     0.816680000000    -0.524998   
O120     O      0.255060000000     0.230380000000     0.905580000000    -0.356898   
O121     O      0.181760000000     0.245460000000     0.674360000000    -0.352066   
O122     O      0.266320000000     0.249460000000     0.587790000000    -0.523265   
O123     O      0.248120000000     0.206250000000     0.741280000000    -0.633759   
O124     O      0.265620000000     0.265500000000     0.749380000000    -0.495352   
O125     O      0.310280000000     0.192720000000     0.818370000000    -0.501506   
O126     O      0.334290000000     0.259500000000     0.677550000000    -0.632464   
O127     O      0.325950000000     0.253710000000     0.823690000000    -0.62763    
O128     O      0.316660000000     0.199960000000     0.672230000000    -0.501427   
Zr13     Zr     0.496990000000     0.491500000000     0.592530000000     1.37853    
Zr14     Zr     0.001290000000     0.495930000000     0.948600000000     1.3779     
Zr15     Zr     0.124590000000     0.470420000000     0.595110000000     1.38451    
Zr16     Zr     0.129600000000     0.479120000000     0.951200000000     1.36708    
Zr17     Zr     0.045970000000     0.424690000000     0.516340000000     1.37249    
Zr18     Zr     0.079620000000     0.042850000000     0.528730000000     1.38704    
Zr19     Zr     0.382260000000     0.214930000000     0.822860000000     1.37708    
Zr20     Zr     0.389120000000     0.218910000000     0.679130000000     1.38016    
Zr21     Zr     0.254000000000     0.231550000000     0.817470000000     1.36556    
Zr22     Zr     0.261430000000     0.239800000000     0.673610000000     1.38403    
Zr23     Zr     0.338500000000     0.285910000000     0.753590000000     1.37341    
Zr24     Zr     0.305410000000     0.167670000000     0.741420000000     1.38424    
C65      C      0.456100000000     0.914340000000     0.091650000000     0.404457   
C66      C      0.010980000000     0.578080000000     0.441530000000     0.397576   
C67      C      0.465830000000     0.917210000000     0.429340000000     0.402622   
C68      C      0.015930000000     0.573350000000     0.115890000000     0.413218   
C69      C      0.149550000000     0.548090000000     0.127540000000     0.407341   
C70      C      0.122550000000     0.895880000000     0.436340000000     0.404602   
C71      C      0.165230000000     0.559550000000     0.455650000000     0.403716   
C72      C      0.117710000000     0.887340000000     0.095120000000     0.40273    
C73      C      0.417470000000     0.793760000000     0.341790000000     0.403433   
C74      C      0.369570000000     0.637300000000     0.154510000000     0.415602   
C75      C      0.428430000000     0.796540000000     0.178300000000     0.407702   
C76      C      0.373490000000     0.632640000000     0.329290000000     0.398105   
C77      C      0.218770000000     0.651080000000     0.313150000000     0.403215   
C78      C      0.267050000000     0.822890000000     0.174080000000     0.404048   
C79      C      0.236390000000     0.662030000000     0.141860000000     0.409041   
C80      C      0.260950000000     0.814830000000     0.332350000000     0.406981   
C81      C      0.175360000000     0.601190000000     0.153430000000    -0.00567997 
C82      C      0.210900000000     0.608810000000     0.116120000000    -0.00503073 
C83      C      0.180350000000     0.621130000000     0.377800000000    -0.0116994  
C84      C      0.203160000000     0.589400000000     0.390470000000    -0.010143   
C85      C      0.214150000000     0.852540000000     0.121260000000    -0.00649648 
C86      C      0.170420000000     0.857480000000     0.147880000000    -0.00971396 
C87      C      0.457460000000     0.602350000000     0.157150000000    -0.00756957 
C88      C      0.428060000000     0.608520000000     0.113010000000    -0.00337626 
C89      C      0.434180000000     0.863840000000     0.409030000000    -0.0102456  
C90      C      0.448700000000     0.847240000000     0.362340000000    -0.00974391 
C91      C      0.418020000000     0.605280000000     0.393320000000    -0.00699081 
C92      C      0.466550000000     0.605570000000     0.377550000000    -0.00961882 
C93      C      0.180080000000     0.871530000000     0.384770000000    -0.0125011  
C94      C      0.203020000000     0.839150000000     0.383410000000    -0.00912913 
C95      C      0.429170000000     0.860330000000     0.112250000000    -0.00788033 
C96      C      0.454810000000     0.850680000000     0.157570000000    -0.00627024 
H161     H      0.485190000000     0.541160000000     0.024140000000     0.190622   
H162     H      0.054800000000     0.944660000000     0.417000000000     0.192964   
H163     H      0.165480000000     0.513870000000     0.030490000000     0.194248   
H164     H      0.046700000000     0.936110000000     0.118930000000     0.19203    
H165     H      0.035840000000     0.506550000000     0.354080000000     0.138208   
H166     H      0.140200000000     0.998060000000     0.346670000000     0.197355   
H167     H      0.215320000000     0.961350000000     0.482620000000     0.133311   
H168     H      0.216490000000     0.943590000000     0.092150000000     0.200343   
H169     H      0.094370000000     0.971030000000     0.192700000000     0.130369   
H170     H      0.495080000000     0.962350000000     0.192140000000     0.19784    
H171     H      0.416260000000     0.522950000000     0.070390000000     0.124326   
H172     H      0.406620000000     0.505790000000     0.476720000000     0.190831   
H173     H      0.221960000000     0.983130000000     0.089510000000     0.188193   
H174     H      0.005180000000     0.501110000000     0.200210000000     0.202329   
H175     H      0.410370000000     0.516240000000     0.418370000000     0.203284   
H176     H      0.112700000000     0.963610000000     0.346390000000     0.192987   
H177     H      0.399760000000     0.669470000000     0.247710000000     0.192019   
H178     H      0.339550000000     0.774050000000     0.151100000000     0.194509   
H179     H      0.219520000000     0.696550000000     0.237720000000     0.19658    
H180     H      0.328110000000     0.766260000000     0.352890000000     0.193614   
H181     H      0.366800000000     0.713320000000     0.079320000000     0.136018   
H182     H      0.294620000000     0.749320000000     0.071900000000     0.189526   
H183     H      0.175760000000     0.760240000000     0.201480000000     0.136769   
H184     H      0.158370000000     0.732740000000     0.289240000000     0.19053    
H185     H      0.269890000000     0.710110000000     0.413750000000     0.14047    
H186     H      0.355680000000     0.729570000000     0.425540000000     0.191365   
H187     H      0.465860000000     0.688080000000     0.299620000000     0.126452   
H188     H      0.477210000000     0.690290000000     0.154530000000     0.202065   
H189     H      0.161260000000     0.749770000000     0.343920000000     0.204099   
H190     H      0.390600000000     0.698880000000     0.428750000000     0.204768   
H191     H      0.483170000000     0.707670000000     0.208650000000     0.193976   
H192     H      0.239970000000     0.753710000000     0.069320000000     0.20571    
H193     H      0.189380000000     0.556170000000     0.187340000000     0.100363   
H194     H      0.196870000000     0.653720000000     0.081910000000     0.101633   
H195     H      0.143310000000     0.611580000000     0.142090000000     0.0475308  
H196     H      0.184160000000     0.611900000000     0.188930000000     0.0421799  
H197     H      0.202170000000     0.598020000000     0.080670000000     0.0411819  
H198     H      0.242990000000     0.598510000000     0.127540000000     0.0467393  
H199     H      0.181250000000     0.610980000000     0.302480000000     0.0970702  
H200     H      0.202780000000     0.599710000000     0.465760000000     0.0977597  
H201     H      0.192090000000     0.640400000000     0.402220000000     0.0425005  
H202     H      0.144280000000     0.618540000000     0.382870000000     0.0396788  
H203     H      0.239210000000     0.591930000000     0.385140000000     0.0395326  
H204     H      0.191220000000     0.570100000000     0.366230000000     0.0400545  
H205     H      0.264160000000     0.872080000000     0.168040000000     0.098458   
H206     H      0.120260000000     0.838130000000     0.101100000000     0.100628   
H207     H      0.219860000000     0.873030000000     0.096600000000     0.0330762  
H208     H      0.212460000000     0.830810000000     0.098390000000     0.0430866  
H209     H      0.172150000000     0.879160000000     0.170860000000     0.0469358  
H210     H      0.164670000000     0.836950000000     0.172440000000     0.0390817  
H211     H      0.021130000000     0.620110000000     0.138480000000     0.0976034  
H212     H      0.364440000000     0.590610000000     0.131590000000     0.103025   
H213     H      0.446670000000     0.580520000000     0.176580000000     0.0443214  
H214     H      0.455330000000     0.622550000000     0.183010000000     0.0296503  
H215     H      0.430270000000     0.588350000000     0.087090000000     0.0291001  
H216     H      0.438780000000     0.630390000000     0.093660000000     0.038998   
H217     H      0.416630000000     0.909340000000     0.378740000000     0.0988264  
H218     H      0.466090000000     0.801810000000     0.392990000000     0.100761   
H219     H      0.454160000000     0.854910000000     0.439890000000     0.0481445  
H220     H      0.399310000000     0.857670000000     0.416560000000     0.0381125  
H221     H      0.483550000000     0.853440000000     0.354760000000     0.0380304  
H222     H      0.428660000000     0.856130000000     0.331500000000     0.0474634  
H223     H      0.377180000000     0.583590000000     0.338090000000     0.0973167  
H224     H      0.007570000000     0.627140000000     0.432730000000     0.0994241  
H225     H      0.411290000000     0.625940000000     0.417370000000     0.0400278  
H226     H      0.411730000000     0.583440000000     0.414910000000     0.034195   
H227     H      0.472850000000     0.627430000000     0.356030000000     0.0390431  
H228     H      0.473260000000     0.584950000000     0.353430000000     0.0436654  
H229     H      0.124220000000     0.848140000000     0.418330000000     0.0986796  
H230     H      0.258950000000     0.862600000000     0.350070000000     0.100384   
H231     H      0.170770000000     0.878770000000     0.347440000000     0.0389808  
H232     H      0.203470000000     0.889340000000     0.399740000000     0.0463595  
H233     H      0.179690000000     0.821350000000     0.368250000000     0.040551   
H234     H      0.212170000000     0.831850000000     0.420760000000     0.0386545  
H235     H      0.399470000000     0.904990000000     0.130870000000     0.0993448  
H236     H      0.484660000000     0.806150000000     0.138550000000     0.102101   
H237     H      0.395750000000     0.849660000000     0.113550000000     0.0369726  
H238     H      0.445770000000     0.851190000000     0.079160000000     0.0466014  
H239     H      0.438120000000     0.859720000000     0.190670000000     0.0442206  
H240     H      0.488180000000     0.861450000000     0.156360000000     0.0353773  
N33      N      0.171620000000     0.566820000000     0.159230000000    -0.217181   
N34      N      0.214530000000     0.643180000000     0.110180000000    -0.216846   
N35      N      0.189100000000     0.628910000000     0.327330000000    -0.215562   
N36      N      0.194710000000     0.581750000000     0.441050000000    -0.215481   
N37      N      0.250850000000     0.850610000000     0.155790000000    -0.216002   
N38      N      0.133730000000     0.859550000000     0.113360000000    -0.214945   
N39      N      0.002630000000     0.599200000000     0.140980000000    -0.219824   
N40      N      0.382880000000     0.611560000000     0.129190000000    -0.220636   
N41      N      0.437690000000     0.898490000000     0.403740000000    -0.214371   
N42      N      0.445270000000     0.812580000000     0.367680000000    -0.214488   
N43      N      0.388000000000     0.605540000000     0.351280000000    -0.215297   
N44      N      0.496590000000     0.605230000000     0.419570000000    -0.214467   
N45      N      0.140470000000     0.869960000000     0.414780000000    -0.215765   
N46      N      0.242780000000     0.840760000000     0.353630000000    -0.216301   
N47      N      0.424980000000     0.894870000000     0.110620000000    -0.216534   
N48      N      0.459220000000     0.816150000000     0.159040000000    -0.216491   
O129     O      0.452610000000     0.944070000000     0.101610000000    -0.380348   
O130     O      0.487160000000     0.902170000000     0.065680000000    -0.372759   
O131     O      0.495000000000     0.551530000000     0.426690000000    -0.383033   
O132     O      0.039720000000     0.580530000000     0.476000000000    -0.371015   
O133     O      0.464370000000     0.947400000000     0.421230000000    -0.37435    
O134     O      0.491960000000     0.904020000000     0.460030000000    -0.373984   
O135     O      0.494740000000     0.546900000000     0.121170000000    -0.38454    
O136     O      0.047580000000     0.577520000000     0.086350000000    -0.384659   
O137     O      0.420220000000     0.507700000000     0.097370000000    -0.336628   
O138     O      0.499350000000     0.983390000000     0.178880000000    -0.550476   
O139     O      0.423980000000     0.508480000000     0.447710000000    -0.523746   
O140     O      0.006960000000     0.996600000000     0.360690000000    -0.368063   
O141     O      0.489660000000     0.963940000000     0.017840000000    -0.49565    
O142     O      0.006120000000     0.523870000000     0.023390000000    -0.636684   
O143     O      0.151270000000     0.517960000000     0.134830000000    -0.383911   
O144     O      0.128400000000     0.561380000000     0.092500000000    -0.360333   
O145     O      0.140910000000     0.923210000000     0.429500000000    -0.373544   
O146     O      0.088430000000     0.891250000000     0.462880000000    -0.375116   
O147     O      0.163780000000     0.532000000000     0.434450000000    -0.37027    
O148     O      0.141140000000     0.567450000000     0.491470000000    -0.392965   
O149     O      0.135310000000     0.913620000000     0.109100000000    -0.37853    
O150     O      0.085670000000     0.885650000000     0.064690000000    -0.37358    
O151     O      0.203410000000     0.964540000000     0.091800000000    -0.530678   
O152     O      0.121840000000     0.960550000000     0.181890000000    -0.342178   
O153     O      0.208790000000     0.970760000000     0.450540000000    -0.345102   
O154     O      0.127100000000     0.980500000000     0.364010000000    -0.530976   
O155     O      0.136820000000     0.504210000000     0.027440000000    -0.633254   
O156     O      0.118980000000     0.944960000000     0.019250000000    -0.493528   
O157     O      0.069560000000     0.510370000000     0.097940000000    -0.500131   
O158     O      0.057490000000     0.957090000000     0.446260000000    -0.625979   
O159     O      0.051620000000     0.950770000000     0.092550000000    -0.629317   
O160     O      0.073400000000     0.518010000000     0.451760000000    -0.50206    
O161     O      0.418890000000     0.763600000000     0.350140000000    -0.373717   
O162     O      0.391710000000     0.806830000000     0.310620000000    -0.374739   
O163     O      0.390640000000     0.663790000000     0.149280000000    -0.38659    
O164     O      0.338070000000     0.632990000000     0.184220000000    -0.384222   
O165     O      0.432110000000     0.766840000000     0.168260000000    -0.378022   
O166     O      0.397490000000     0.808550000000     0.204610000000    -0.373532   
O167     O      0.389270000000     0.659240000000     0.344180000000    -0.385497   
O168     O      0.344890000000     0.630090000000     0.294700000000    -0.37124    
O169     O      0.460540000000     0.702970000000     0.326770000000    -0.339826   
O170     O      0.374500000000     0.714250000000     0.409700000000    -0.525854   
O171     O      0.464990000000     0.702350000000     0.181130000000    -0.52665    
O172     O      0.391730000000     0.726060000000     0.091730000000    -0.353514   
O173     O      0.395010000000     0.746790000000     0.253680000000    -0.496374   
O174     O      0.378770000000     0.686720000000     0.248160000000    -0.636529   
O175     O      0.219930000000     0.678660000000     0.334260000000    -0.371568   
O176     O      0.243350000000     0.643130000000     0.277750000000    -0.392761   
O177     O      0.249670000000     0.796530000000     0.160090000000    -0.382022   
O178     O      0.299010000000     0.824710000000     0.204580000000    -0.374344   
O179     O      0.234610000000     0.692130000000     0.134390000000    -0.378486   
O180     O      0.257410000000     0.648860000000     0.177120000000    -0.359626   
O181     O      0.242650000000     0.787470000000     0.339180000000    -0.373681   
O182     O      0.295280000000     0.819450000000     0.306130000000    -0.37542    
O183     O      0.175550000000     0.739720000000     0.316670000000    -0.524948   
O184     O      0.255060000000     0.730380000000     0.405580000000    -0.356826   
O185     O      0.181760000000     0.745460000000     0.174360000000    -0.352032   
O186     O      0.266310000000     0.749460000000     0.087790000000    -0.523252   
O187     O      0.248120000000     0.706250000000     0.241270000000    -0.633666   
O188     O      0.265620000000     0.765500000000     0.249380000000    -0.49531    
O189     O      0.310280000000     0.692720000000     0.318370000000    -0.501466   
O190     O      0.334290000000     0.759500000000     0.177550000000    -0.632452   
O191     O      0.325950000000     0.753710000000     0.323690000000    -0.627597   
O192     O      0.316660000000     0.699960000000     0.172230000000    -0.501342   
Zr25     Zr     0.496990000000     0.991500000000     0.092530000000     1.34435    
Zr26     Zr     0.001300000000     0.995920000000     0.448600000000     1.34288    
Zr27     Zr     0.124590000000     0.970410000000     0.095100000000     1.35869    
Zr28     Zr     0.129600000000     0.979130000000     0.451210000000     1.34059    
Zr29     Zr     0.045970000000     0.924690000000     0.016340000000     1.3713     
Zr30     Zr     0.079620000000     0.542850000000     0.028730000000     1.38328    
Zr31     Zr     0.382260000000     0.714930000000     0.322860000000     1.37724    
Zr32     Zr     0.389120000000     0.718910000000     0.179130000000     1.38042    
Zr33     Zr     0.254000000000     0.731550000000     0.317470000000     1.36572    
Zr34     Zr     0.261430000000     0.739800000000     0.173610000000     1.38434    
Zr35     Zr     0.338500000000     0.785910000000     0.253590000000     1.37348    
Zr36     Zr     0.305410000000     0.667660000000     0.241420000000     1.38412    
C97      C      0.456100000000     0.914340000000     0.591650000000     0.404785   
C98      C      0.010980000000     0.578080000000     0.941530000000     0.397872   
C99      C      0.465830000000     0.917210000000     0.929340000000     0.402607   
C100     C      0.015930000000     0.573350000000     0.615900000000     0.413136   
C101     C      0.149550000000     0.548080000000     0.627540000000     0.40713    
C102     C      0.122550000000     0.895870000000     0.936350000000     0.404421   
C103     C      0.165230000000     0.559550000000     0.955650000000     0.403623   
C104     C      0.117700000000     0.887340000000     0.595120000000     0.402654   
C105     C      0.417470000000     0.793760000000     0.841790000000     0.40344    
C106     C      0.369570000000     0.637300000000     0.654510000000     0.415608   
C107     C      0.428430000000     0.796540000000     0.678300000000     0.407778   
C108     C      0.373490000000     0.632640000000     0.829290000000     0.398109   
C109     C      0.218770000000     0.651080000000     0.813150000000     0.403402   
C110     C      0.267050000000     0.822880000000     0.674090000000     0.404099   
C111     C      0.236390000000     0.662030000000     0.641870000000     0.409077   
C112     C      0.260950000000     0.814830000000     0.832350000000     0.407026   
C113     C      0.175360000000     0.601190000000     0.653430000000    -0.00568225 
C114     C      0.210900000000     0.608810000000     0.616120000000    -0.00499305 
C115     C      0.180350000000     0.621130000000     0.877800000000    -0.011699   
C116     C      0.203160000000     0.589390000000     0.890470000000    -0.0101501  
C117     C      0.214150000000     0.852540000000     0.621260000000    -0.00650871 
C118     C      0.170420000000     0.857480000000     0.647880000000    -0.00971283 
C119     C      0.457460000000     0.602350000000     0.657160000000    -0.00758122 
C120     C      0.428060000000     0.608510000000     0.613010000000    -0.00335512 
C121     C      0.434180000000     0.863840000000     0.909030000000    -0.0102536  
C122     C      0.448700000000     0.847240000000     0.862340000000    -0.00973526 
C123     C      0.418020000000     0.605280000000     0.893320000000    -0.00698199 
C124     C      0.466550000000     0.605570000000     0.877550000000    -0.00959961 
C125     C      0.180080000000     0.871530000000     0.884770000000    -0.0124787  
C126     C      0.203020000000     0.839140000000     0.883410000000    -0.00919904 
C127     C      0.429170000000     0.860330000000     0.612250000000    -0.00792048 
C128     C      0.454810000000     0.850680000000     0.657570000000    -0.00625223 
H241     H      0.485190000000     0.541160000000     0.524140000000     0.1907     
H242     H      0.054800000000     0.944660000000     0.917000000000     0.192656   
H243     H      0.165480000000     0.513870000000     0.530490000000     0.194205   
H244     H      0.046700000000     0.936110000000     0.618940000000     0.191774   
H245     H      0.035840000000     0.506550000000     0.854080000000     0.138202   
H246     H      0.140200000000     0.998060000000     0.846660000000     0.197191   
H247     H      0.215320000000     0.961340000000     0.982620000000     0.133384   
H248     H      0.216490000000     0.943590000000     0.592150000000     0.200299   
H249     H      0.094370000000     0.971030000000     0.692700000000     0.130364   
H250     H      0.495080000000     0.962350000000     0.692140000000     0.197844   
H251     H      0.416260000000     0.522940000000     0.570390000000     0.124457   
H252     H      0.406620000000     0.505790000000     0.976720000000     0.190912   
H253     H      0.221960000000     0.983130000000     0.589510000000     0.188481   
H254     H      0.005180000000     0.501110000000     0.700210000000     0.202325   
H255     H      0.410370000000     0.516240000000     0.918370000000     0.203299   
H256     H      0.112700000000     0.963600000000     0.846390000000     0.192864   
H257     H      0.399760000000     0.669470000000     0.747720000000     0.192012   
H258     H      0.339550000000     0.774050000000     0.651100000000     0.194525   
H259     H      0.219520000000     0.696550000000     0.737720000000     0.19656    
H260     H      0.328110000000     0.766260000000     0.852890000000     0.193622   
H261     H      0.366800000000     0.713310000000     0.579320000000     0.135959   
H262     H      0.294620000000     0.749310000000     0.571900000000     0.189571   
H263     H      0.175760000000     0.760240000000     0.701490000000     0.13668    
H264     H      0.158370000000     0.732740000000     0.789240000000     0.190525   
H265     H      0.269890000000     0.710110000000     0.913750000000     0.140491   
H266     H      0.355680000000     0.729570000000     0.925540000000     0.191356   
H267     H      0.465860000000     0.688080000000     0.799630000000     0.126532   
H268     H      0.477210000000     0.690290000000     0.654530000000     0.202165   
H269     H      0.161260000000     0.749770000000     0.843910000000     0.204242   
H270     H      0.390600000000     0.698870000000     0.928750000000     0.204649   
H271     H      0.483170000000     0.707670000000     0.708650000000     0.193882   
H272     H      0.239970000000     0.753710000000     0.569320000000     0.205758   
H273     H      0.189380000000     0.556170000000     0.687330000000     0.100348   
H274     H      0.196870000000     0.653720000000     0.581910000000     0.101671   
H275     H      0.143310000000     0.611580000000     0.642090000000     0.0475401  
H276     H      0.184160000000     0.611900000000     0.688930000000     0.0421745  
H277     H      0.202170000000     0.598020000000     0.580660000000     0.0412181  
H278     H      0.242990000000     0.598500000000     0.627540000000     0.0467394  
H279     H      0.181250000000     0.610980000000     0.802480000000     0.0970727  
H280     H      0.202780000000     0.599710000000     0.965760000000     0.0978056  
H281     H      0.192090000000     0.640390000000     0.902230000000     0.0425232  
H282     H      0.144280000000     0.618540000000     0.882870000000     0.0396895  
H283     H      0.239210000000     0.591930000000     0.885140000000     0.0395474  
H284     H      0.191220000000     0.570100000000     0.866230000000     0.0400602  
H285     H      0.264170000000     0.872080000000     0.668040000000     0.0984079  
H286     H      0.120260000000     0.838130000000     0.601100000000     0.100645   
H287     H      0.219860000000     0.873030000000     0.596610000000     0.0331254  
H288     H      0.212460000000     0.830810000000     0.598390000000     0.0431277  
H289     H      0.172150000000     0.879160000000     0.670870000000     0.0469268  
H290     H      0.164670000000     0.836960000000     0.672440000000     0.0390847  
H291     H      0.021130000000     0.620100000000     0.638480000000     0.0976447  
H292     H      0.364440000000     0.590610000000     0.631590000000     0.10304    
H293     H      0.446670000000     0.580510000000     0.676580000000     0.0443246  
H294     H      0.455330000000     0.622550000000     0.683000000000     0.0296586  
H295     H      0.430270000000     0.588340000000     0.587090000000     0.0291255  
H296     H      0.438780000000     0.630390000000     0.593660000000     0.0390243  
H297     H      0.416630000000     0.909340000000     0.878740000000     0.0988326  
H298     H      0.466090000000     0.801810000000     0.892990000000     0.100787   
H299     H      0.454160000000     0.854910000000     0.939890000000     0.0481879  
H300     H      0.399310000000     0.857670000000     0.916560000000     0.0381441  
H301     H      0.483550000000     0.853440000000     0.854760000000     0.0380346  
H302     H      0.428660000000     0.856130000000     0.831500000000     0.0474618  
H303     H      0.377180000000     0.583590000000     0.838090000000     0.0973205  
H304     H      0.007570000000     0.627140000000     0.932730000000     0.0994089  
H305     H      0.411290000000     0.625940000000     0.917380000000     0.0400474  
H306     H      0.411730000000     0.583440000000     0.914910000000     0.0342175  
H307     H      0.472850000000     0.627430000000     0.856030000000     0.0390379  
H308     H      0.473260000000     0.584950000000     0.853430000000     0.0436608  
H309     H      0.124220000000     0.848130000000     0.918330000000     0.0986325  
H310     H      0.258950000000     0.862600000000     0.850070000000     0.100403   
H311     H      0.170770000000     0.878770000000     0.847440000000     0.0389773  
H312     H      0.203470000000     0.889340000000     0.899740000000     0.0463619  
H313     H      0.179690000000     0.821350000000     0.868260000000     0.0405752  
H314     H      0.212170000000     0.831850000000     0.920760000000     0.0387035  
H315     H      0.399470000000     0.904980000000     0.630870000000     0.0994526  
H316     H      0.484660000000     0.806150000000     0.638540000000     0.102093   
H317     H      0.395750000000     0.849660000000     0.613550000000     0.0370016  
H318     H      0.445770000000     0.851190000000     0.579150000000     0.0466422  
H319     H      0.438120000000     0.859720000000     0.690670000000     0.044215   
H320     H      0.488180000000     0.861450000000     0.656360000000     0.0353779  
N49      N      0.171620000000     0.566820000000     0.659220000000    -0.217124   
N50      N      0.214530000000     0.643180000000     0.610180000000    -0.216815   
N51      N      0.189100000000     0.628910000000     0.827330000000    -0.215589   
N52      N      0.194710000000     0.581750000000     0.941050000000    -0.215454   
N53      N      0.250850000000     0.850610000000     0.655780000000    -0.215869   
N54      N      0.133730000000     0.859550000000     0.613360000000    -0.214902   
N55      N      0.002620000000     0.599200000000     0.640980000000    -0.219862   
N56      N      0.382880000000     0.611560000000     0.629190000000    -0.220631   
N57      N      0.437690000000     0.898490000000     0.903740000000    -0.214356   
N58      N      0.445270000000     0.812580000000     0.867680000000    -0.214488   
N59      N      0.388000000000     0.605540000000     0.851280000000    -0.215295   
N60      N      0.496590000000     0.605220000000     0.919570000000    -0.214498   
N61      N      0.140470000000     0.869960000000     0.914780000000    -0.215712   
N62      N      0.242780000000     0.840760000000     0.853620000000    -0.216316   
N63      N      0.424980000000     0.894880000000     0.610620000000    -0.216667   
N64      N      0.459220000000     0.816150000000     0.659040000000    -0.21648    
O193     O      0.452610000000     0.944060000000     0.601620000000    -0.380498   
O194     O      0.487160000000     0.902170000000     0.565680000000    -0.372834   
O195     O      0.495000000000     0.551530000000     0.926690000000    -0.38307    
O196     O      0.039720000000     0.580530000000     0.975990000000    -0.371047   
O197     O      0.464370000000     0.947400000000     0.921230000000    -0.374268   
O198     O      0.491960000000     0.904020000000     0.960030000000    -0.37385    
O199     O      0.494740000000     0.546900000000     0.621170000000    -0.384542   
O200     O      0.047580000000     0.577520000000     0.586350000000    -0.384521   
O201     O      0.420220000000     0.507700000000     0.597370000000    -0.336696   
O202     O      0.499350000000     0.983390000000     0.678880000000    -0.550495   
O203     O      0.423980000000     0.508480000000     0.947710000000    -0.523754   
O204     O      0.006960000000     0.996600000000     0.860690000000    -0.368081   
O205     O      0.489660000000     0.963940000000     0.517840000000    -0.495638   
O206     O      0.006120000000     0.523870000000     0.523390000000    -0.636643   
O207     O      0.151270000000     0.517950000000     0.634830000000    -0.383951   
O208     O      0.128400000000     0.561380000000     0.592490000000    -0.360188   
O209     O      0.140910000000     0.923220000000     0.929500000000    -0.373422   
O210     O      0.088430000000     0.891250000000     0.962880000000    -0.375001   
O211     O      0.163780000000     0.532000000000     0.934450000000    -0.370228   
O212     O      0.141140000000     0.567450000000     0.991480000000    -0.3928     
O213     O      0.135310000000     0.913620000000     0.609100000000    -0.378402   
O214     O      0.085670000000     0.885650000000     0.564680000000    -0.373553   
O215     O      0.203420000000     0.964550000000     0.591800000000    -0.530778   
O216     O      0.121840000000     0.960550000000     0.681890000000    -0.342228   
O217     O      0.208790000000     0.970750000000     0.950540000000    -0.345119   
O218     O      0.127090000000     0.980500000000     0.864010000000    -0.530777   
O219     O      0.136820000000     0.504200000000     0.527440000000    -0.633182   
O220     O      0.118980000000     0.944960000000     0.519260000000    -0.493325   
O221     O      0.069560000000     0.510370000000     0.597940000000    -0.500219   
O222     O      0.057490000000     0.957100000000     0.946270000000    -0.625639   
O223     O      0.051620000000     0.950770000000     0.592540000000    -0.629179   
O224     O      0.073400000000     0.518010000000     0.951760000000    -0.501967   
O225     O      0.418890000000     0.763600000000     0.850140000000    -0.373708   
O226     O      0.391710000000     0.806830000000     0.810620000000    -0.374743   
O227     O      0.390640000000     0.663790000000     0.649280000000    -0.386587   
O228     O      0.338070000000     0.632990000000     0.684220000000    -0.38422    
O229     O      0.432110000000     0.766840000000     0.668260000000    -0.378025   
O230     O      0.397490000000     0.808550000000     0.704600000000    -0.373565   
O231     O      0.389270000000     0.659240000000     0.844180000000    -0.385493   
O232     O      0.344890000000     0.630090000000     0.794700000000    -0.371236   
O233     O      0.460540000000     0.702970000000     0.826770000000    -0.33989    
O234     O      0.374500000000     0.714250000000     0.909700000000    -0.525669   
O235     O      0.464990000000     0.702350000000     0.681120000000    -0.52664    
O236     O      0.391730000000     0.726060000000     0.591730000000    -0.353393   
O237     O      0.395010000000     0.746790000000     0.753680000000    -0.496377   
O238     O      0.378770000000     0.686720000000     0.748170000000    -0.636529   
O239     O      0.219930000000     0.678650000000     0.834260000000    -0.371617   
O240     O      0.243350000000     0.643130000000     0.777750000000    -0.392808   
O241     O      0.249670000000     0.796530000000     0.660090000000    -0.382093   
O242     O      0.299010000000     0.824710000000     0.704580000000    -0.374398   
O243     O      0.234610000000     0.692130000000     0.634390000000    -0.378477   
O244     O      0.257410000000     0.648860000000     0.677120000000    -0.35969    
O245     O      0.242650000000     0.787470000000     0.839180000000    -0.3737     
O246     O      0.295280000000     0.819450000000     0.806130000000    -0.375428   
O247     O      0.175550000000     0.739710000000     0.816680000000    -0.525073   
O248     O      0.255060000000     0.730380000000     0.905580000000    -0.356795   
O249     O      0.181760000000     0.745460000000     0.674360000000    -0.351941   
O250     O      0.266310000000     0.749460000000     0.587790000000    -0.523249   
O251     O      0.248120000000     0.706250000000     0.741280000000    -0.633662   
O252     O      0.265620000000     0.765500000000     0.749380000000    -0.49532    
O253     O      0.310280000000     0.692720000000     0.818370000000    -0.501462   
O254     O      0.334290000000     0.759500000000     0.677550000000    -0.632446   
O255     O      0.325950000000     0.753710000000     0.823690000000    -0.627608   
O256     O      0.316660000000     0.699960000000     0.672230000000    -0.501344   
Zr37     Zr     0.496990000000     0.991490000000     0.592530000000     1.34425    
Zr38     Zr     0.001290000000     0.995930000000     0.948600000000     1.34322    
Zr39     Zr     0.124590000000     0.970420000000     0.595110000000     1.3587     
Zr40     Zr     0.129600000000     0.979120000000     0.951200000000     1.34085    
Zr41     Zr     0.045970000000     0.924690000000     0.516340000000     1.37175    
Zr42     Zr     0.079620000000     0.542840000000     0.528730000000     1.3835     
Zr43     Zr     0.382260000000     0.714930000000     0.822860000000     1.37728    
Zr44     Zr     0.389120000000     0.718910000000     0.679130000000     1.38036    
Zr45     Zr     0.254000000000     0.731550000000     0.817470000000     1.36578    
Zr46     Zr     0.261430000000     0.739800000000     0.673610000000     1.38429    
Zr47     Zr     0.338500000000     0.785910000000     0.753590000000     1.37347    
Zr48     Zr     0.305410000000     0.667660000000     0.741420000000     1.38413    
C129     C      0.956100000000     0.414340000000     0.091650000000     0.405642   
C130     C      0.510980000000     0.078080000000     0.441530000000     0.396518   
C131     C      0.965830000000     0.417210000000     0.429340000000     0.403524   
C132     C      0.515930000000     0.073350000000     0.115890000000     0.412298   
C133     C      0.649550000000     0.048090000000     0.127540000000     0.406219   
C134     C      0.622550000000     0.395870000000     0.436340000000     0.405071   
C135     C      0.665230000000     0.059550000000     0.455650000000     0.402648   
C136     C      0.617710000000     0.387340000000     0.095120000000     0.403294   
C137     C      0.917470000000     0.293760000000     0.341790000000     0.403418   
C138     C      0.869570000000     0.137300000000     0.154510000000     0.415846   
C139     C      0.928430000000     0.296540000000     0.178300000000     0.407412   
C140     C      0.873490000000     0.132650000000     0.329290000000     0.398424   
C141     C      0.718770000000     0.151080000000     0.313150000000     0.403129   
C142     C      0.767050000000     0.322880000000     0.174080000000     0.404178   
C143     C      0.736400000000     0.162030000000     0.141860000000     0.408982   
C144     C      0.760960000000     0.314830000000     0.332350000000     0.407138   
C145     C      0.675360000000     0.101190000000     0.153430000000    -0.00521769 
C146     C      0.710910000000     0.108810000000     0.116120000000    -0.00536057 
C147     C      0.680350000000     0.121130000000     0.377800000000    -0.0113559  
C148     C      0.703150000000     0.089400000000     0.390470000000    -0.0105664  
C149     C      0.714150000000     0.352540000000     0.121260000000    -0.00642564 
C150     C      0.670420000000     0.357480000000     0.147880000000    -0.00978516 
C151     C      0.957470000000     0.102350000000     0.157150000000    -0.00775157 
C152     C      0.928060000000     0.108510000000     0.113010000000    -0.0031546  
C153     C      0.934180000000     0.363840000000     0.409030000000    -0.0100094  
C154     C      0.948700000000     0.347240000000     0.362340000000    -0.00994165 
C155     C      0.918020000000     0.105280000000     0.393320000000    -0.00662452 
C156     C      0.966550000000     0.105570000000     0.377550000000    -0.00997672 
C157     C      0.680080000000     0.371530000000     0.384770000000    -0.0127068  
C158     C      0.703030000000     0.339140000000     0.383410000000    -0.0089458  
C159     C      0.929170000000     0.360330000000     0.112250000000    -0.00766994 
C160     C      0.954810000000     0.350680000000     0.157570000000    -0.0064629  
H321     H      0.985190000000     0.041170000000     0.024140000000     0.189717   
H322     H      0.554800000000     0.444660000000     0.417000000000     0.193195   
H323     H      0.665490000000     0.013870000000     0.030490000000     0.196238   
H324     H      0.546700000000     0.436110000000     0.118930000000     0.191974   
H325     H      0.535840000000     0.006550000000     0.354080000000     0.155951   
H326     H      0.640200000000     0.498060000000     0.346670000000     0.203653   
H327     H      0.715320000000     0.461350000000     0.482620000000     0.134611   
H328     H      0.716490000000     0.443590000000     0.092150000000     0.201647   
H329     H      0.594370000000     0.471030000000     0.192700000000     0.133725   
H330     H      0.995080000000     0.462350000000     0.192140000000     0.194962   
H331     H      0.916270000000     0.022950000000     0.070390000000     0.125269   
H332     H      0.906620000000     0.005790000000     0.476720000000     0.194293   
H333     H      0.721970000000     0.483130000000     0.089510000000     0.194027   
H334     H      0.505180000000     0.001110000000     0.200210000000     0.220139   
H335     H      0.910370000000     0.016240000000     0.418370000000     0.206109   
H336     H      0.612690000000     0.463600000000     0.346390000000     0.194647   
H337     H      0.899760000000     0.169470000000     0.247710000000     0.192104   
H338     H      0.839550000000     0.274050000000     0.151100000000     0.194489   
H339     H      0.719520000000     0.196550000000     0.237720000000     0.196564   
H340     H      0.828120000000     0.266260000000     0.352890000000     0.193571   
H341     H      0.866810000000     0.213310000000     0.079320000000     0.136009   
H342     H      0.794620000000     0.249320000000     0.071900000000     0.189475   
H343     H      0.675760000000     0.260240000000     0.201480000000     0.136723   
H344     H      0.658380000000     0.232730000000     0.289240000000     0.19044    
H345     H      0.769900000000     0.210110000000     0.413750000000     0.140418   
H346     H      0.855670000000     0.229570000000     0.425540000000     0.191161   
H347     H      0.965860000000     0.188090000000     0.299620000000     0.126591   
H348     H      0.977210000000     0.190290000000     0.154530000000     0.202067   
H349     H      0.661260000000     0.249770000000     0.343920000000     0.203855   
H350     H      0.890600000000     0.198870000000     0.428750000000     0.204548   
H351     H      0.983160000000     0.207670000000     0.208650000000     0.194046   
H352     H      0.739970000000     0.253710000000     0.069320000000     0.205617   
H353     H      0.689380000000     0.056170000000     0.187340000000     0.102976   
H354     H      0.696870000000     0.153720000000     0.081910000000     0.101574   
H355     H      0.643310000000     0.111580000000     0.142090000000     0.04757    
H356     H      0.684160000000     0.111900000000     0.188930000000     0.0424913  
H357     H      0.702160000000     0.098020000000     0.080670000000     0.0419139  
H358     H      0.742980000000     0.098500000000     0.127540000000     0.0478628  
H359     H      0.681250000000     0.110980000000     0.302480000000     0.0979563  
H360     H      0.702780000000     0.099710000000     0.465760000000     0.0980658  
H361     H      0.692100000000     0.140390000000     0.402220000000     0.0424063  
H362     H      0.644280000000     0.118540000000     0.382870000000     0.0399257  
H363     H      0.739210000000     0.091930000000     0.385140000000     0.0408513  
H364     H      0.691220000000     0.070110000000     0.366230000000     0.0425     
H365     H      0.764160000000     0.372080000000     0.168040000000     0.0992025  
H366     H      0.620260000000     0.338140000000     0.101100000000     0.100613   
H367     H      0.719860000000     0.373030000000     0.096600000000     0.0333253  
H368     H      0.712470000000     0.330810000000     0.098390000000     0.0430395  
H369     H      0.672150000000     0.379160000000     0.170860000000     0.0473003  
H370     H      0.664670000000     0.336950000000     0.172440000000     0.0391027  
H371     H      0.521130000000     0.120110000000     0.138480000000     0.0976302  
H372     H      0.864440000000     0.090610000000     0.131590000000     0.104339   
H373     H      0.946680000000     0.080520000000     0.176580000000     0.0457422  
H374     H      0.955330000000     0.122550000000     0.183010000000     0.0299693  
H375     H      0.930280000000     0.088350000000     0.087090000000     0.0297402  
H376     H      0.938780000000     0.130390000000     0.093660000000     0.038985   
H377     H      0.916630000000     0.409340000000     0.378740000000     0.100279   
H378     H      0.966100000000     0.301810000000     0.392990000000     0.100612   
H379     H      0.954160000000     0.354910000000     0.439890000000     0.0481155  
H380     H      0.899310000000     0.357670000000     0.416560000000     0.038399   
H381     H      0.983550000000     0.353430000000     0.354760000000     0.0381899  
H382     H      0.928660000000     0.356130000000     0.331500000000     0.0478562  
H383     H      0.877180000000     0.083590000000     0.338090000000     0.0991399  
H384     H      0.507570000000     0.127150000000     0.432730000000     0.0994031  
H385     H      0.911290000000     0.125940000000     0.417370000000     0.0400952  
H386     H      0.911730000000     0.083450000000     0.414910000000     0.0351726  
H387     H      0.972850000000     0.127430000000     0.356030000000     0.0393435  
H388     H      0.973260000000     0.084950000000     0.353430000000     0.0452799  
H389     H      0.624220000000     0.348130000000     0.418330000000     0.0986092  
H390     H      0.758950000000     0.362600000000     0.350070000000     0.100938   
H391     H      0.670770000000     0.378770000000     0.347440000000     0.0394099  
H392     H      0.703470000000     0.389340000000     0.399740000000     0.0468743  
H393     H      0.679690000000     0.321360000000     0.368250000000     0.0404691  
H394     H      0.712170000000     0.331850000000     0.420760000000     0.0386205  
H395     H      0.899460000000     0.404980000000     0.130870000000     0.100747   
H396     H      0.984660000000     0.306160000000     0.138550000000     0.102034   
H397     H      0.895750000000     0.349660000000     0.113550000000     0.0371212  
H398     H      0.945780000000     0.351190000000     0.079160000000     0.0465668  
H399     H      0.938120000000     0.359720000000     0.190670000000     0.0446187  
H400     H      0.988180000000     0.361450000000     0.156360000000     0.0354918  
N65      N      0.671620000000     0.066820000000     0.159230000000    -0.216468   
N66      N      0.714530000000     0.143180000000     0.110180000000    -0.216729   
N67      N      0.689090000000     0.128910000000     0.327330000000    -0.215559   
N68      N      0.694710000000     0.081750000000     0.441050000000    -0.21442    
N69      N      0.750850000000     0.350610000000     0.155790000000    -0.215954   
N70      N      0.633730000000     0.359550000000     0.113360000000    -0.215133   
N71      N      0.502620000000     0.099200000000     0.140980000000    -0.219154   
N72      N      0.882880000000     0.111560000000     0.129190000000    -0.220643   
N73      N      0.937690000000     0.398490000000     0.403740000000    -0.214375   
N74      N      0.945260000000     0.312580000000     0.367680000000    -0.214453   
N75      N      0.888000000000     0.105540000000     0.351280000000    -0.215195   
N76      N      0.996590000000     0.105220000000     0.419570000000    -0.213602   
N77      N      0.640470000000     0.369950000000     0.414780000000    -0.215846   
N78      N      0.742780000000     0.340750000000     0.353630000000    -0.216331   
N79      N      0.924980000000     0.394870000000     0.110620000000    -0.216601   
N80      N      0.959220000000     0.316150000000     0.159040000000    -0.21646    
O257     O      0.952610000000     0.444060000000     0.101610000000    -0.380188   
O258     O      0.987160000000     0.402180000000     0.065680000000    -0.373355   
O259     O      0.995000000000     0.051530000000     0.426690000000    -0.375308   
O260     O      0.539720000000     0.080530000000     0.476000000000    -0.370477   
O261     O      0.964370000000     0.447400000000     0.421230000000    -0.374171   
O262     O      0.991970000000     0.404020000000     0.460030000000    -0.374347   
O263     O      0.994740000000     0.046910000000     0.121170000000    -0.377787   
O264     O      0.547580000000     0.077520000000     0.086350000000    -0.384208   
O265     O      0.920220000000     0.007710000000     0.097370000000    -0.324286   
O266     O      0.999350000000     0.483390000000     0.178880000000    -0.531741   
O267     O      0.923980000000     0.008480000000     0.447710000000    -0.514324   
O268     O      0.506950000000     0.496600000000     0.360690000000    -0.350167   
O269     O      0.989660000000     0.463940000000     0.017840000000    -0.496186   
O270     O      0.506120000000     0.023870000000     0.023390000000    -0.62287    
O271     O      0.651260000000     0.017950000000     0.134830000000    -0.373124   
O272     O      0.628400000000     0.061380000000     0.092500000000    -0.359448   
O273     O      0.640900000000     0.423210000000     0.429500000000    -0.375301   
O274     O      0.588420000000     0.391250000000     0.462880000000    -0.375657   
O275     O      0.663780000000     0.032000000000     0.434450000000    -0.361001   
O276     O      0.641140000000     0.067450000000     0.491470000000    -0.392224   
O277     O      0.635310000000     0.413620000000     0.109100000000    -0.380277   
O278     O      0.585670000000     0.385650000000     0.064690000000    -0.374211   
O279     O      0.703420000000     0.464540000000     0.091800000000    -0.531102   
O280     O      0.621840000000     0.460550000000     0.181890000000    -0.340843   
O281     O      0.708790000000     0.470750000000     0.450540000000    -0.341613   
O282     O      0.627090000000     0.480510000000     0.364010000000    -0.530908   
O283     O      0.636820000000     0.004210000000     0.027440000000    -0.619853   
O284     O      0.618980000000     0.444960000000     0.019250000000    -0.495155   
O285     O      0.569550000000     0.010380000000     0.097940000000    -0.485634   
O286     O      0.557490000000     0.457090000000     0.446260000000    -0.628142   
O287     O      0.551610000000     0.450770000000     0.092550000000    -0.63153    
O288     O      0.573400000000     0.018010000000     0.451760000000    -0.488552   
O289     O      0.918880000000     0.263600000000     0.350140000000    -0.373824   
O290     O      0.891710000000     0.306830000000     0.310620000000    -0.374645   
O291     O      0.890640000000     0.163790000000     0.149280000000    -0.386666   
O292     O      0.838080000000     0.132990000000     0.184220000000    -0.383714   
O293     O      0.932110000000     0.266830000000     0.168260000000    -0.37799    
O294     O      0.897490000000     0.308550000000     0.204610000000    -0.373381   
O295     O      0.889270000000     0.159240000000     0.344180000000    -0.385646   
O296     O      0.844890000000     0.130090000000     0.294700000000    -0.370575   
O297     O      0.960540000000     0.202970000000     0.326770000000    -0.339995   
O298     O      0.874500000000     0.214250000000     0.409700000000    -0.525549   
O299     O      0.964990000000     0.202350000000     0.181130000000    -0.526791   
O300     O      0.891730000000     0.226060000000     0.091730000000    -0.353618   
O301     O      0.895010000000     0.246790000000     0.253680000000    -0.496424   
O302     O      0.878770000000     0.186720000000     0.248160000000    -0.636623   
O303     O      0.719940000000     0.178660000000     0.334260000000    -0.3716     
O304     O      0.743360000000     0.143130000000     0.277750000000    -0.392275   
O305     O      0.749670000000     0.296530000000     0.160090000000    -0.382196   
O306     O      0.799010000000     0.324710000000     0.204580000000    -0.37413    
O307     O      0.734610000000     0.192130000000     0.134390000000    -0.378542   
O308     O      0.757410000000     0.148860000000     0.177120000000    -0.359422   
O309     O      0.742650000000     0.287470000000     0.339180000000    -0.373753   
O310     O      0.795280000000     0.319450000000     0.306130000000    -0.375302   
O311     O      0.675560000000     0.239710000000     0.316670000000    -0.524903   
O312     O      0.755060000000     0.230380000000     0.405580000000    -0.356867   
O313     O      0.681760000000     0.245460000000     0.174360000000    -0.352137   
O314     O      0.766310000000     0.249460000000     0.087790000000    -0.52326    
O315     O      0.748120000000     0.206250000000     0.241270000000    -0.633774   
O316     O      0.765620000000     0.265500000000     0.249380000000    -0.495344   
O317     O      0.810280000000     0.192720000000     0.318370000000    -0.501473   
O318     O      0.834290000000     0.259500000000     0.177550000000    -0.632475   
O319     O      0.825950000000     0.253710000000     0.323690000000    -0.627554   
O320     O      0.816660000000     0.199960000000     0.172230000000    -0.50144    
Zr49     Zr     0.996990000000     0.491500000000     0.092530000000     1.3788     
Zr50     Zr     0.501300000000     0.495930000000     0.448600000000     1.37802    
Zr51     Zr     0.624590000000     0.470420000000     0.095100000000     1.38426    
Zr52     Zr     0.629600000000     0.479120000000     0.451210000000     1.36691    
Zr53     Zr     0.545970000000     0.424690000000     0.016340000000     1.37253    
Zr54     Zr     0.579620000000     0.042850000000     0.028730000000     1.3868     
Zr55     Zr     0.882260000000     0.214930000000     0.322860000000     1.37702    
Zr56     Zr     0.889120000000     0.218910000000     0.179130000000     1.38022    
Zr57     Zr     0.753990000000     0.231550000000     0.317470000000     1.36554    
Zr58     Zr     0.761430000000     0.239800000000     0.173610000000     1.38409    
Zr59     Zr     0.838500000000     0.285910000000     0.253590000000     1.37343    
Zr60     Zr     0.805410000000     0.167670000000     0.241420000000     1.3843     
C161     C      0.956100000000     0.414340000000     0.591650000000     0.405503   
C162     C      0.510980000000     0.078080000000     0.941530000000     0.39665    
C163     C      0.965830000000     0.417210000000     0.929340000000     0.403618   
C164     C      0.515930000000     0.073350000000     0.615900000000     0.412245   
C165     C      0.649550000000     0.048090000000     0.627540000000     0.406417   
C166     C      0.622550000000     0.395870000000     0.936350000000     0.40503    
C167     C      0.665230000000     0.059550000000     0.955650000000     0.402716   
C168     C      0.617710000000     0.387340000000     0.595120000000     0.403226   
C169     C      0.917480000000     0.293760000000     0.841790000000     0.403319   
C170     C      0.869570000000     0.137300000000     0.654510000000     0.415852   
C171     C      0.928430000000     0.296540000000     0.678300000000     0.40743    
C172     C      0.873490000000     0.132650000000     0.829290000000     0.398435   
C173     C      0.718770000000     0.151080000000     0.813150000000     0.403272   
C174     C      0.767050000000     0.322880000000     0.674090000000     0.404078   
C175     C      0.736390000000     0.162030000000     0.641870000000     0.408989   
C176     C      0.760950000000     0.314830000000     0.832350000000     0.407161   
C177     C      0.675350000000     0.101190000000     0.653430000000    -0.00524655 
C178     C      0.710910000000     0.108820000000     0.616120000000    -0.0052078  
C179     C      0.680360000000     0.121130000000     0.877800000000    -0.0113071  
C180     C      0.703160000000     0.089400000000     0.890470000000    -0.0105931  
C181     C      0.714150000000     0.352540000000     0.621260000000    -0.00646781 
C182     C      0.670420000000     0.357480000000     0.647880000000    -0.00978606 
C183     C      0.957470000000     0.102350000000     0.657160000000    -0.00774458 
C184     C      0.928060000000     0.108510000000     0.613010000000    -0.00316199 
C185     C      0.934180000000     0.363840000000     0.909030000000    -0.0100144  
C186     C      0.948700000000     0.347240000000     0.862340000000    -0.00993039 
C187     C      0.918020000000     0.105280000000     0.893320000000    -0.00660877 
C188     C      0.966550000000     0.105570000000     0.877550000000    -0.00996668 
C189     C      0.680080000000     0.371530000000     0.884770000000    -0.0126671  
C190     C      0.703030000000     0.339140000000     0.883410000000    -0.00898541 
C191     C      0.929170000000     0.360330000000     0.612250000000    -0.00766504 
C192     C      0.954810000000     0.350680000000     0.657570000000    -0.00646958 
H401     H      0.985190000000     0.041170000000     0.524140000000     0.189779   
H402     H      0.554800000000     0.444660000000     0.917000000000     0.193026   
H403     H      0.665480000000     0.013880000000     0.530490000000     0.196249   
H404     H      0.546700000000     0.436110000000     0.618940000000     0.191706   
H405     H      0.535840000000     0.006550000000     0.854080000000     0.155945   
H406     H      0.640210000000     0.498060000000     0.846660000000     0.203565   
H407     H      0.715320000000     0.461350000000     0.982620000000     0.134686   
H408     H      0.716490000000     0.443590000000     0.592150000000     0.201715   
H409     H      0.594370000000     0.471030000000     0.692700000000     0.133728   
H410     H      0.995080000000     0.462350000000     0.692140000000     0.194966   
H411     H      0.916260000000     0.022950000000     0.570390000000     0.125319   
H412     H      0.906620000000     0.005790000000     0.976720000000     0.19439    
H413     H      0.721960000000     0.483130000000     0.589510000000     0.194165   
H414     H      0.505180000000     0.001110000000     0.700210000000     0.220143   
H415     H      0.910370000000     0.016240000000     0.918370000000     0.206139   
H416     H      0.612690000000     0.463600000000     0.846390000000     0.194544   
H417     H      0.899760000000     0.169470000000     0.747720000000     0.192096   
H418     H      0.839550000000     0.274050000000     0.651100000000     0.194508   
H419     H      0.719520000000     0.196550000000     0.737720000000     0.196544   
H420     H      0.828120000000     0.266260000000     0.852890000000     0.193578   
H421     H      0.866810000000     0.213310000000     0.579320000000     0.136041   
H422     H      0.794620000000     0.249320000000     0.571900000000     0.189477   
H423     H      0.675760000000     0.260240000000     0.701490000000     0.136639   
H424     H      0.658380000000     0.232730000000     0.789240000000     0.19039    
H425     H      0.769900000000     0.210110000000     0.913750000000     0.140434   
H426     H      0.855680000000     0.229570000000     0.925540000000     0.191302   
H427     H      0.965860000000     0.188090000000     0.799630000000     0.126671   
H428     H      0.977210000000     0.190290000000     0.654530000000     0.202171   
H429     H      0.661260000000     0.249770000000     0.843910000000     0.204084   
H430     H      0.890600000000     0.198870000000     0.928750000000     0.204619   
H431     H      0.983160000000     0.207670000000     0.708650000000     0.193952   
H432     H      0.739960000000     0.253710000000     0.569320000000     0.205518   
H433     H      0.689380000000     0.056170000000     0.687330000000     0.102991   
H434     H      0.696870000000     0.153720000000     0.581910000000     0.101617   
H435     H      0.643300000000     0.111580000000     0.642090000000     0.0475747  
H436     H      0.684160000000     0.111900000000     0.688930000000     0.0424903  
H437     H      0.702160000000     0.098020000000     0.580660000000     0.0419106  
H438     H      0.742990000000     0.098500000000     0.627540000000     0.0478342  
H439     H      0.681250000000     0.110980000000     0.802480000000     0.0979609  
H440     H      0.702770000000     0.099710000000     0.965760000000     0.0981286  
H441     H      0.692090000000     0.140390000000     0.902230000000     0.0424092  
H442     H      0.644280000000     0.118540000000     0.882870000000     0.0399145  
H443     H      0.739210000000     0.091930000000     0.885140000000     0.0408757  
H444     H      0.691220000000     0.070110000000     0.866230000000     0.0425128  
H445     H      0.764170000000     0.372080000000     0.668040000000     0.0991826  
H446     H      0.620260000000     0.338140000000     0.601100000000     0.100675   
H447     H      0.719860000000     0.373030000000     0.596610000000     0.0333757  
H448     H      0.712470000000     0.330810000000     0.598390000000     0.0430858  
H449     H      0.672160000000     0.379160000000     0.670870000000     0.0472901  
H450     H      0.664670000000     0.336950000000     0.672440000000     0.0391023  
H451     H      0.521130000000     0.120110000000     0.638480000000     0.0976434  
H452     H      0.864440000000     0.090610000000     0.631590000000     0.104352   
H453     H      0.946680000000     0.080520000000     0.676580000000     0.0457407  
H454     H      0.955330000000     0.122550000000     0.683000000000     0.0299737  
H455     H      0.930270000000     0.088350000000     0.587090000000     0.0297845  
H456     H      0.938780000000     0.130390000000     0.593660000000     0.0390238  
H457     H      0.916630000000     0.409340000000     0.878740000000     0.100288   
H458     H      0.966100000000     0.301810000000     0.892990000000     0.100664   
H459     H      0.954160000000     0.354910000000     0.939890000000     0.0481573  
H460     H      0.899310000000     0.357670000000     0.916560000000     0.0384284  
H461     H      0.983550000000     0.353430000000     0.854760000000     0.0381926  
H462     H      0.928660000000     0.356130000000     0.831500000000     0.0478502  
H463     H      0.877190000000     0.083590000000     0.838090000000     0.0991578  
H464     H      0.507570000000     0.127150000000     0.932730000000     0.0994375  
H465     H      0.911280000000     0.125940000000     0.917380000000     0.0401097  
H466     H      0.911730000000     0.083450000000     0.914910000000     0.0351803  
H467     H      0.972850000000     0.127430000000     0.856030000000     0.0393418  
H468     H      0.973260000000     0.084950000000     0.853430000000     0.0452703  
H469     H      0.624220000000     0.348130000000     0.918330000000     0.0986255  
H470     H      0.758950000000     0.362600000000     0.850070000000     0.100964   
H471     H      0.670770000000     0.378770000000     0.847440000000     0.0394046  
H472     H      0.703480000000     0.389340000000     0.899740000000     0.0468793  
H473     H      0.679690000000     0.321360000000     0.868260000000     0.04048    
H474     H      0.712180000000     0.331850000000     0.920760000000     0.0386604  
H475     H      0.899460000000     0.404980000000     0.630870000000     0.100758   
H476     H      0.984660000000     0.306160000000     0.638540000000     0.102061   
H477     H      0.895750000000     0.349660000000     0.613550000000     0.0371447  
H478     H      0.945770000000     0.351190000000     0.579150000000     0.0466065  
H479     H      0.938120000000     0.359720000000     0.690670000000     0.0446208  
H480     H      0.988180000000     0.361450000000     0.656360000000     0.0355062  
N81      N      0.671620000000     0.066820000000     0.659220000000    -0.216532   
N82      N      0.714530000000     0.143180000000     0.610180000000    -0.216743   
N83      N      0.689100000000     0.128910000000     0.827330000000    -0.215606   
N84      N      0.694710000000     0.081750000000     0.941050000000    -0.214428   
N85      N      0.750860000000     0.350610000000     0.655780000000    -0.215892   
N86      N      0.633720000000     0.359550000000     0.613360000000    -0.215142   
N87      N      0.502620000000     0.099200000000     0.640980000000    -0.219163   
N88      N      0.882880000000     0.111560000000     0.629190000000    -0.220634   
N89      N      0.937690000000     0.398490000000     0.903740000000    -0.214379   
N90      N      0.945270000000     0.312580000000     0.867680000000    -0.214467   
N91      N      0.888000000000     0.105540000000     0.851280000000    -0.215212   
N92      N      0.996590000000     0.105220000000     0.919570000000    -0.213639   
N93      N      0.640470000000     0.369950000000     0.914780000000    -0.215806   
N94      N      0.742780000000     0.340750000000     0.853620000000    -0.216375   
N95      N      0.924980000000     0.394870000000     0.610620000000    -0.216556   
N96      N      0.959230000000     0.316150000000     0.659040000000    -0.216436   
O321     O      0.952610000000     0.444060000000     0.601620000000    -0.380126   
O322     O      0.987160000000     0.402170000000     0.565680000000    -0.373229   
O323     O      0.995010000000     0.051530000000     0.926690000000    -0.375468   
O324     O      0.539720000000     0.080530000000     0.975990000000    -0.370395   
O325     O      0.964370000000     0.447400000000     0.921230000000    -0.374177   
O326     O      0.991960000000     0.404020000000     0.960030000000    -0.374259   
O327     O      0.994740000000     0.046910000000     0.621170000000    -0.377696   
O328     O      0.547580000000     0.077520000000     0.586350000000    -0.384148   
O329     O      0.920220000000     0.007710000000     0.597370000000    -0.324253   
O330     O      0.999350000000     0.483390000000     0.678880000000    -0.531741   
O331     O      0.923980000000     0.008480000000     0.947710000000    -0.514439   
O332     O      0.506950000000     0.496600000000     0.860690000000    -0.350194   
O333     O      0.989660000000     0.463940000000     0.517840000000    -0.496101   
O334     O      0.506120000000     0.023870000000     0.523390000000    -0.622764   
O335     O      0.651260000000     0.017960000000     0.634830000000    -0.373313   
O336     O      0.628400000000     0.061380000000     0.592490000000    -0.359458   
O337     O      0.640910000000     0.423210000000     0.929500000000    -0.375213   
O338     O      0.588420000000     0.391250000000     0.962880000000    -0.37557    
O339     O      0.663780000000     0.032010000000     0.934450000000    -0.360994   
O340     O      0.641140000000     0.067450000000     0.991480000000    -0.392106   
O341     O      0.635310000000     0.413620000000     0.609100000000    -0.380272   
O342     O      0.585670000000     0.385640000000     0.564680000000    -0.374073   
O343     O      0.703420000000     0.464540000000     0.591800000000    -0.531223   
O344     O      0.621840000000     0.460550000000     0.681890000000    -0.340904   
O345     O      0.708790000000     0.470750000000     0.950540000000    -0.341593   
O346     O      0.627100000000     0.480510000000     0.864010000000    -0.530803   
O347     O      0.636820000000     0.004200000000     0.527440000000    -0.619811   
O348     O      0.618980000000     0.444960000000     0.519260000000    -0.495045   
O349     O      0.569560000000     0.010380000000     0.597940000000    -0.485701   
O350     O      0.557490000000     0.457090000000     0.946270000000    -0.62798    
O351     O      0.551610000000     0.450770000000     0.592540000000    -0.631369   
O352     O      0.573390000000     0.018010000000     0.951760000000    -0.488462   
O353     O      0.918890000000     0.263600000000     0.850140000000    -0.373769   
O354     O      0.891710000000     0.306830000000     0.810620000000    -0.374583   
O355     O      0.890640000000     0.163790000000     0.649280000000    -0.386657   
O356     O      0.838080000000     0.132990000000     0.684220000000    -0.383708   
O357     O      0.932110000000     0.266830000000     0.668260000000    -0.377974   
O358     O      0.897490000000     0.308550000000     0.704600000000    -0.373396   
O359     O      0.889270000000     0.159240000000     0.844180000000    -0.385638   
O360     O      0.844890000000     0.130090000000     0.794700000000    -0.370574   
O361     O      0.960540000000     0.202970000000     0.826770000000    -0.340065   
O362     O      0.874500000000     0.214250000000     0.909700000000    -0.525688   
O363     O      0.964990000000     0.202350000000     0.681120000000    -0.526781   
O364     O      0.891730000000     0.226060000000     0.591730000000    -0.353573   
O365     O      0.895010000000     0.246790000000     0.753680000000    -0.496434   
O366     O      0.878770000000     0.186720000000     0.748170000000    -0.636616   
O367     O      0.719930000000     0.178660000000     0.834260000000    -0.371614   
O368     O      0.743350000000     0.143130000000     0.777750000000    -0.39232    
O369     O      0.749670000000     0.296530000000     0.660090000000    -0.382136   
O370     O      0.799020000000     0.324710000000     0.704580000000    -0.374116   
O371     O      0.734610000000     0.192130000000     0.634390000000    -0.378522   
O372     O      0.757410000000     0.148860000000     0.677120000000    -0.359438   
O373     O      0.742650000000     0.287470000000     0.839180000000    -0.373789   
O374     O      0.795280000000     0.319450000000     0.806130000000    -0.375245   
O375     O      0.675560000000     0.239710000000     0.816680000000    -0.525046   
O376     O      0.755060000000     0.230380000000     0.905580000000    -0.356838   
O377     O      0.681760000000     0.245460000000     0.674360000000    -0.352048   
O378     O      0.766310000000     0.249460000000     0.587790000000    -0.523082   
O379     O      0.748120000000     0.206250000000     0.741280000000    -0.633768   
O380     O      0.765620000000     0.265500000000     0.749380000000    -0.495347   
O381     O      0.810290000000     0.192720000000     0.818370000000    -0.501481   
O382     O      0.834290000000     0.259500000000     0.677550000000    -0.632467   
O383     O      0.825950000000     0.253710000000     0.823690000000    -0.627564   
O384     O      0.816660000000     0.199960000000     0.672230000000    -0.501431   
Zr61     Zr     0.996990000000     0.491500000000     0.592530000000     1.37878    
Zr62     Zr     0.501300000000     0.495930000000     0.948600000000     1.37834    
Zr63     Zr     0.624590000000     0.470420000000     0.595110000000     1.38446    
Zr64     Zr     0.629600000000     0.479120000000     0.951200000000     1.36705    
Zr65     Zr     0.545970000000     0.424690000000     0.516340000000     1.37279    
Zr66     Zr     0.579610000000     0.042850000000     0.528730000000     1.38708    
Zr67     Zr     0.882260000000     0.214930000000     0.822860000000     1.37713    
Zr68     Zr     0.889120000000     0.218910000000     0.679130000000     1.38018    
Zr69     Zr     0.753990000000     0.231550000000     0.817470000000     1.36558    
Zr70     Zr     0.761430000000     0.239800000000     0.673610000000     1.38401    
Zr71     Zr     0.838500000000     0.285910000000     0.753590000000     1.37341    
Zr72     Zr     0.805410000000     0.167670000000     0.741420000000     1.38425    
C193     C      0.956100000000     0.914340000000     0.091650000000     0.404443   
C194     C      0.510980000000     0.578080000000     0.441530000000     0.398023   
C195     C      0.965830000000     0.917210000000     0.429340000000     0.402512   
C196     C      0.515930000000     0.573350000000     0.115890000000     0.413423   
C197     C      0.649550000000     0.548090000000     0.127540000000     0.407359   
C198     C      0.622550000000     0.895880000000     0.436340000000     0.404618   
C199     C      0.665230000000     0.559550000000     0.455650000000     0.403702   
C200     C      0.617710000000     0.887340000000     0.095120000000     0.402739   
C201     C      0.917470000000     0.793760000000     0.341790000000     0.403509   
C202     C      0.869570000000     0.637300000000     0.154510000000     0.415734   
C203     C      0.928430000000     0.796540000000     0.178300000000     0.40771    
C204     C      0.873490000000     0.632640000000     0.329290000000     0.398108   
C205     C      0.718770000000     0.651080000000     0.313150000000     0.403087   
C206     C      0.767050000000     0.822890000000     0.174080000000     0.404048   
C207     C      0.736400000000     0.662030000000     0.141860000000     0.409074   
C208     C      0.760960000000     0.814830000000     0.332350000000     0.407011   
C209     C      0.675360000000     0.601190000000     0.153430000000    -0.00566605 
C210     C      0.710910000000     0.608810000000     0.116120000000    -0.00507684 
C211     C      0.680350000000     0.621130000000     0.377800000000    -0.0117077  
C212     C      0.703150000000     0.589400000000     0.390470000000    -0.0101197  
C213     C      0.714150000000     0.852540000000     0.121260000000    -0.00650091 
C214     C      0.670420000000     0.857480000000     0.147880000000    -0.00970971 
C215     C      0.957470000000     0.602350000000     0.157150000000    -0.00743442 
C216     C      0.928060000000     0.608520000000     0.113010000000    -0.00340666 
C217     C      0.934180000000     0.863840000000     0.409030000000    -0.0102434  
C218     C      0.948700000000     0.847240000000     0.362340000000    -0.00974523 
C219     C      0.918020000000     0.605280000000     0.393320000000    -0.00697224 
C220     C      0.966550000000     0.605570000000     0.377550000000    -0.00965324 
C221     C      0.680080000000     0.871530000000     0.384770000000    -0.0125671  
C222     C      0.703030000000     0.839150000000     0.383410000000    -0.00905518 
C223     C      0.929170000000     0.860330000000     0.112250000000    -0.00787694 
C224     C      0.954810000000     0.850680000000     0.157570000000    -0.00627197 
H481     H      0.985190000000     0.541160000000     0.024140000000     0.190809   
H482     H      0.554800000000     0.944660000000     0.417000000000     0.193005   
H483     H      0.665490000000     0.513870000000     0.030490000000     0.194086   
H484     H      0.546700000000     0.936110000000     0.118930000000     0.192109   
H485     H      0.535840000000     0.506550000000     0.354080000000     0.13811    
H486     H      0.640200000000     0.998060000000     0.346670000000     0.19729    
H487     H      0.715320000000     0.961350000000     0.482620000000     0.133308   
H488     H      0.716490000000     0.943590000000     0.092150000000     0.200397   
H489     H      0.594370000000     0.971030000000     0.192700000000     0.130401   
H490     H      0.995080000000     0.962350000000     0.192140000000     0.197838   
H491     H      0.916260000000     0.522950000000     0.070390000000     0.124329   
H492     H      0.906620000000     0.505790000000     0.476720000000     0.190838   
H493     H      0.721970000000     0.983130000000     0.089510000000     0.188205   
H494     H      0.505180000000     0.501110000000     0.200210000000     0.202549   
H495     H      0.910370000000     0.516240000000     0.418370000000     0.203298   
H496     H      0.612690000000     0.963610000000     0.346390000000     0.192985   
H497     H      0.899760000000     0.669470000000     0.247710000000     0.192027   
H498     H      0.839550000000     0.774050000000     0.151100000000     0.19451    
H499     H      0.719520000000     0.696550000000     0.237720000000     0.196583   
H500     H      0.828120000000     0.766260000000     0.352890000000     0.193595   
H501     H      0.866810000000     0.713320000000     0.079320000000     0.136107   
H502     H      0.794620000000     0.749320000000     0.071900000000     0.189526   
H503     H      0.675760000000     0.760240000000     0.201480000000     0.13678    
H504     H      0.658370000000     0.732740000000     0.289240000000     0.190457   
H505     H      0.769900000000     0.710110000000     0.413750000000     0.14042    
H506     H      0.855670000000     0.729570000000     0.425540000000     0.191266   
H507     H      0.965860000000     0.688080000000     0.299620000000     0.126467   
H508     H      0.977210000000     0.690290000000     0.154530000000     0.202147   
H509     H      0.661260000000     0.749770000000     0.343920000000     0.204038   
H510     H      0.890600000000     0.698880000000     0.428750000000     0.20475    
H511     H      0.983160000000     0.707670000000     0.208650000000     0.194114   
H512     H      0.739970000000     0.753710000000     0.069320000000     0.205716   
H513     H      0.689380000000     0.556170000000     0.187340000000     0.100364   
H514     H      0.696870000000     0.653720000000     0.081910000000     0.101638   
H515     H      0.643310000000     0.611580000000     0.142090000000     0.0475419  
H516     H      0.684160000000     0.611900000000     0.188930000000     0.0421848  
H517     H      0.702160000000     0.598020000000     0.080670000000     0.0411966  
H518     H      0.742980000000     0.598510000000     0.127540000000     0.0467514  
H519     H      0.681250000000     0.610980000000     0.302480000000     0.0970737  
H520     H      0.702780000000     0.599710000000     0.465760000000     0.0977608  
H521     H      0.692100000000     0.640400000000     0.402220000000     0.0425069  
H522     H      0.644280000000     0.618540000000     0.382870000000     0.039702   
H523     H      0.739210000000     0.591930000000     0.385140000000     0.0395219  
H524     H      0.691220000000     0.570100000000     0.366230000000     0.0400515  
H525     H      0.764160000000     0.872080000000     0.168040000000     0.0984581  
H526     H      0.620260000000     0.838130000000     0.101100000000     0.100656   
H527     H      0.719860000000     0.873030000000     0.096600000000     0.0330739  
H528     H      0.712470000000     0.830810000000     0.098390000000     0.0430922  
H529     H      0.672150000000     0.879160000000     0.170860000000     0.0469423  
H530     H      0.664670000000     0.836950000000     0.172440000000     0.0390966  
H531     H      0.521130000000     0.620110000000     0.138480000000     0.0976194  
H532     H      0.864440000000     0.590610000000     0.131590000000     0.10303    
H533     H      0.946680000000     0.580520000000     0.176580000000     0.0443207  
H534     H      0.955330000000     0.622550000000     0.183010000000     0.0296499  
H535     H      0.930280000000     0.588350000000     0.087090000000     0.0291258  
H536     H      0.938780000000     0.630390000000     0.093660000000     0.039034   
H537     H      0.916630000000     0.909340000000     0.378740000000     0.0988341  
H538     H      0.966100000000     0.801810000000     0.392990000000     0.100732   
H539     H      0.954160000000     0.854910000000     0.439890000000     0.048163   
H540     H      0.899310000000     0.857670000000     0.416560000000     0.0381157  
H541     H      0.983550000000     0.853440000000     0.354760000000     0.0380702  
H542     H      0.928660000000     0.856130000000     0.331500000000     0.0474757  
H543     H      0.877180000000     0.583590000000     0.338090000000     0.0973232  
H544     H      0.507570000000     0.627140000000     0.432730000000     0.0995999  
H545     H      0.911290000000     0.625940000000     0.417370000000     0.0400392  
H546     H      0.911730000000     0.583440000000     0.414910000000     0.0342001  
H547     H      0.972850000000     0.627430000000     0.356030000000     0.0390914  
H548     H      0.973260000000     0.584950000000     0.353430000000     0.0437141  
H549     H      0.624220000000     0.848140000000     0.418330000000     0.098739   
H550     H      0.758950000000     0.862600000000     0.350070000000     0.100379   
H551     H      0.670770000000     0.878770000000     0.347440000000     0.0390098  
H552     H      0.703470000000     0.889340000000     0.399740000000     0.046365   
H553     H      0.679690000000     0.821350000000     0.368250000000     0.0405438  
H554     H      0.712170000000     0.831850000000     0.420760000000     0.0386334  
H555     H      0.899460000000     0.904990000000     0.130870000000     0.0993069  
H556     H      0.984660000000     0.806150000000     0.138550000000     0.102139   
H557     H      0.895750000000     0.849660000000     0.113550000000     0.0369739  
H558     H      0.945780000000     0.851190000000     0.079160000000     0.0466167  
H559     H      0.938120000000     0.859720000000     0.190670000000     0.0442355  
H560     H      0.988180000000     0.861450000000     0.156360000000     0.0354221  
N97      N      0.671620000000     0.566820000000     0.159230000000    -0.217186   
N98      N      0.714530000000     0.643180000000     0.110180000000    -0.216816   
N99      N      0.689090000000     0.628910000000     0.327330000000    -0.215518   
N100     N      0.694710000000     0.581750000000     0.441050000000    -0.215482   
N101     N      0.750850000000     0.850610000000     0.155790000000    -0.216002   
N102     N      0.633730000000     0.859550000000     0.113360000000    -0.21494    
N103     N      0.502620000000     0.599200000000     0.140980000000    -0.219707   
N104     N      0.882880000000     0.611560000000     0.129190000000    -0.220657   
N105     N      0.937690000000     0.898490000000     0.403740000000    -0.214346   
N106     N      0.945260000000     0.812580000000     0.367680000000    -0.214471   
N107     N      0.888000000000     0.605540000000     0.351280000000    -0.215298   
N108     N      0.996590000000     0.605230000000     0.419570000000    -0.214202   
N109     N      0.640460000000     0.869960000000     0.414780000000    -0.215801   
N110     N      0.742780000000     0.840760000000     0.353630000000    -0.216292   
N111     N      0.924980000000     0.894870000000     0.110620000000    -0.216493   
N112     N      0.959220000000     0.816150000000     0.159040000000    -0.216485   
O385     O      0.952610000000     0.944070000000     0.101610000000    -0.380339   
O386     O      0.987160000000     0.902170000000     0.065680000000    -0.372663   
O387     O      0.995000000000     0.551530000000     0.426690000000    -0.382718   
O388     O      0.539720000000     0.580530000000     0.476000000000    -0.371105   
O389     O      0.964370000000     0.947400000000     0.421230000000    -0.374205   
O390     O      0.991970000000     0.904020000000     0.460030000000    -0.373837   
O391     O      0.994740000000     0.546900000000     0.121170000000    -0.384366   
O392     O      0.547580000000     0.577520000000     0.086350000000    -0.384667   
O393     O      0.920220000000     0.507700000000     0.097370000000    -0.336638   
O394     O      0.999350000000     0.983390000000     0.178880000000    -0.550252   
O395     O      0.923980000000     0.508480000000     0.447710000000    -0.523749   
O396     O      0.506950000000     0.996600000000     0.360690000000    -0.367874   
O397     O      0.989660000000     0.963940000000     0.017840000000    -0.495507   
O398     O      0.506120000000     0.523870000000     0.023390000000    -0.636444   
O399     O      0.651260000000     0.517960000000     0.134830000000    -0.383918   
O400     O      0.628400000000     0.561380000000     0.092500000000    -0.36033    
O401     O      0.640900000000     0.923210000000     0.429500000000    -0.373592   
O402     O      0.588420000000     0.891250000000     0.462880000000    -0.375068   
O403     O      0.663780000000     0.532000000000     0.434450000000    -0.370262   
O404     O      0.641140000000     0.567450000000     0.491470000000    -0.39291    
O405     O      0.635310000000     0.913620000000     0.109100000000    -0.378534   
O406     O      0.585670000000     0.885650000000     0.064690000000    -0.373564   
O407     O      0.703420000000     0.964540000000     0.091800000000    -0.530692   
O408     O      0.621840000000     0.960550000000     0.181890000000    -0.342164   
O409     O      0.708790000000     0.970760000000     0.450540000000    -0.345113   
O410     O      0.627090000000     0.980500000000     0.364010000000    -0.530897   
O411     O      0.636820000000     0.504210000000     0.027440000000    -0.633097   
O412     O      0.618980000000     0.944960000000     0.019250000000    -0.493556   
O413     O      0.569550000000     0.510370000000     0.097940000000    -0.500062   
O414     O      0.557490000000     0.957090000000     0.446260000000    -0.626006   
O415     O      0.551610000000     0.950770000000     0.092550000000    -0.629269   
O416     O      0.573400000000     0.518010000000     0.451760000000    -0.502132   
O417     O      0.918880000000     0.763600000000     0.350140000000    -0.373749   
O418     O      0.891710000000     0.806830000000     0.310620000000    -0.37475    
O419     O      0.890640000000     0.663790000000     0.149280000000    -0.386623   
O420     O      0.838080000000     0.632990000000     0.184220000000    -0.384302   
O421     O      0.932110000000     0.766840000000     0.168260000000    -0.378008   
O422     O      0.897490000000     0.808550000000     0.204610000000    -0.373531   
O423     O      0.889270000000     0.659240000000     0.344180000000    -0.385496   
O424     O      0.844890000000     0.630090000000     0.294700000000    -0.371233   
O425     O      0.960540000000     0.702970000000     0.326770000000    -0.339797   
O426     O      0.874500000000     0.714250000000     0.409700000000    -0.525728   
O427     O      0.964990000000     0.702350000000     0.181130000000    -0.526778   
O428     O      0.891730000000     0.726060000000     0.091730000000    -0.353587   
O429     O      0.895010000000     0.746790000000     0.253680000000    -0.496376   
O430     O      0.878770000000     0.686720000000     0.248160000000    -0.636537   
O431     O      0.719940000000     0.678660000000     0.334260000000    -0.371561   
O432     O      0.743360000000     0.643130000000     0.277750000000    -0.39272    
O433     O      0.749670000000     0.796530000000     0.160090000000    -0.382021   
O434     O      0.799010000000     0.824710000000     0.204580000000    -0.374342   
O435     O      0.734610000000     0.692130000000     0.134390000000    -0.37849    
O436     O      0.757410000000     0.648860000000     0.177120000000    -0.359685   
O437     O      0.742650000000     0.787470000000     0.339180000000    -0.373659   
O438     O      0.795280000000     0.819450000000     0.306130000000    -0.375488   
O439     O      0.675560000000     0.739720000000     0.316670000000    -0.524888   
O440     O      0.755060000000     0.730380000000     0.405580000000    -0.356769   
O441     O      0.681760000000     0.745460000000     0.174360000000    -0.352013   
O442     O      0.766310000000     0.749460000000     0.087790000000    -0.523254   
O443     O      0.748120000000     0.706250000000     0.241270000000    -0.633674   
O444     O      0.765620000000     0.765500000000     0.249380000000    -0.495306   
O445     O      0.810280000000     0.692720000000     0.318370000000    -0.501425   
O446     O      0.834290000000     0.759500000000     0.177550000000    -0.632456   
O447     O      0.825950000000     0.753710000000     0.323690000000    -0.627533   
O448     O      0.816660000000     0.699960000000     0.172230000000    -0.501355   
Zr73     Zr     0.996990000000     0.991500000000     0.092530000000     1.34453    
Zr74     Zr     0.501300000000     0.995920000000     0.448600000000     1.34328    
Zr75     Zr     0.624590000000     0.970410000000     0.095100000000     1.35853    
Zr76     Zr     0.629600000000     0.979130000000     0.451210000000     1.3406     
Zr77     Zr     0.545970000000     0.924690000000     0.016340000000     1.37162    
Zr78     Zr     0.579620000000     0.542850000000     0.028730000000     1.3833     
Zr79     Zr     0.882260000000     0.714930000000     0.322860000000     1.37725    
Zr80     Zr     0.889120000000     0.718910000000     0.179130000000     1.38044    
Zr81     Zr     0.753990000000     0.731550000000     0.317470000000     1.36579    
Zr82     Zr     0.761430000000     0.739800000000     0.173610000000     1.38434    
Zr83     Zr     0.838500000000     0.785910000000     0.253590000000     1.3735     
Zr84     Zr     0.805410000000     0.667660000000     0.241420000000     1.38416    
C225     C      0.956100000000     0.914340000000     0.591650000000     0.404772   
C226     C      0.510980000000     0.578080000000     0.941530000000     0.39824    
C227     C      0.965830000000     0.917210000000     0.929340000000     0.402595   
C228     C      0.515930000000     0.573350000000     0.615900000000     0.413385   
C229     C      0.649550000000     0.548080000000     0.627540000000     0.407136   
C230     C      0.622550000000     0.895870000000     0.936350000000     0.4043     
C231     C      0.665230000000     0.559550000000     0.955650000000     0.403625   
C232     C      0.617710000000     0.887340000000     0.595120000000     0.402691   
C233     C      0.917480000000     0.793760000000     0.841790000000     0.403411   
C234     C      0.869570000000     0.637300000000     0.654510000000     0.415741   
C235     C      0.928430000000     0.796540000000     0.678300000000     0.407786   
C236     C      0.873490000000     0.632640000000     0.829290000000     0.398112   
C237     C      0.718770000000     0.651080000000     0.813150000000     0.403414   
C238     C      0.767050000000     0.822880000000     0.674090000000     0.40402    
C239     C      0.736390000000     0.662030000000     0.641870000000     0.40908    
C240     C      0.760950000000     0.814830000000     0.832350000000     0.407033   
C241     C      0.675350000000     0.601190000000     0.653430000000    -0.0056716  
C242     C      0.710910000000     0.608810000000     0.616120000000    -0.00500894 
C243     C      0.680360000000     0.621130000000     0.877800000000    -0.0116739  
C244     C      0.703160000000     0.589390000000     0.890470000000    -0.010156   
C245     C      0.714150000000     0.852540000000     0.621260000000    -0.00655104 
C246     C      0.670420000000     0.857480000000     0.647880000000    -0.00973231 
C247     C      0.957470000000     0.602350000000     0.657160000000    -0.00738749 
C248     C      0.928060000000     0.608510000000     0.613010000000    -0.00340687 
C249     C      0.934180000000     0.863840000000     0.909030000000    -0.0102487  
C250     C      0.948700000000     0.847240000000     0.862340000000    -0.00973356 
C251     C      0.918020000000     0.605280000000     0.893320000000    -0.00695986 
C252     C      0.966550000000     0.605570000000     0.877550000000    -0.00963332 
C253     C      0.680080000000     0.871530000000     0.884770000000    -0.0124822  
C254     C      0.703030000000     0.839140000000     0.883410000000    -0.00914322 
C255     C      0.929170000000     0.860330000000     0.612250000000    -0.00792862 
C256     C      0.954810000000     0.850680000000     0.657570000000    -0.0062474  
H561     H      0.985190000000     0.541160000000     0.524140000000     0.19088    
H562     H      0.554800000000     0.944660000000     0.917000000000     0.192701   
H563     H      0.665480000000     0.513870000000     0.530490000000     0.1942     
H564     H      0.546700000000     0.936110000000     0.618940000000     0.191857   
H565     H      0.535840000000     0.506550000000     0.854080000000     0.138099   
H566     H      0.640210000000     0.998060000000     0.846660000000     0.197155   
H567     H      0.715320000000     0.961340000000     0.982620000000     0.133383   
H568     H      0.716490000000     0.943590000000     0.592150000000     0.200295   
H569     H      0.594370000000     0.971030000000     0.692700000000     0.130397   
H570     H      0.995080000000     0.962350000000     0.692140000000     0.197841   
H571     H      0.916260000000     0.522940000000     0.570390000000     0.124461   
H572     H      0.906620000000     0.505790000000     0.976720000000     0.190918   
H573     H      0.721960000000     0.983130000000     0.589510000000     0.188475   
H574     H      0.505180000000     0.501110000000     0.700210000000     0.202542   
H575     H      0.910370000000     0.516240000000     0.918370000000     0.203311   
H576     H      0.612690000000     0.963600000000     0.846390000000     0.192709   
H577     H      0.899760000000     0.669470000000     0.747720000000     0.192019   
H578     H      0.839550000000     0.774050000000     0.651100000000     0.194529   
H579     H      0.719520000000     0.696550000000     0.737720000000     0.196563   
H580     H      0.828120000000     0.766260000000     0.852890000000     0.193601   
H581     H      0.866810000000     0.713310000000     0.579320000000     0.136051   
H582     H      0.794620000000     0.749310000000     0.571900000000     0.189531   
H583     H      0.675760000000     0.760240000000     0.701490000000     0.136691   
H584     H      0.658370000000     0.732740000000     0.789240000000     0.190452   
H585     H      0.769900000000     0.710110000000     0.913750000000     0.140436   
H586     H      0.855680000000     0.729570000000     0.925540000000     0.19136    
H587     H      0.965860000000     0.688080000000     0.799630000000     0.126547   
H588     H      0.977210000000     0.690290000000     0.654530000000     0.202249   
H589     H      0.661260000000     0.749770000000     0.843910000000     0.204181   
H590     H      0.890600000000     0.698870000000     0.928750000000     0.204661   
H591     H      0.983160000000     0.707670000000     0.708650000000     0.19402    
H592     H      0.739960000000     0.753710000000     0.569320000000     0.20562    
H593     H      0.689380000000     0.556170000000     0.687330000000     0.100347   
H594     H      0.696870000000     0.653720000000     0.581910000000     0.101679   
H595     H      0.643300000000     0.611580000000     0.642090000000     0.0475492  
H596     H      0.684160000000     0.611900000000     0.688930000000     0.0421794  
H597     H      0.702160000000     0.598020000000     0.580660000000     0.041226   
H598     H      0.742990000000     0.598500000000     0.627540000000     0.0467418  
H599     H      0.681250000000     0.610980000000     0.802480000000     0.0970814  
H600     H      0.702770000000     0.599710000000     0.965760000000     0.0978211  
H601     H      0.692090000000     0.640390000000     0.902230000000     0.0425216  
H602     H      0.644280000000     0.618540000000     0.882870000000     0.0396953  
H603     H      0.739210000000     0.591930000000     0.885140000000     0.0395485  
H604     H      0.691220000000     0.570100000000     0.866230000000     0.0400648  
H605     H      0.764170000000     0.872080000000     0.668040000000     0.0984339  
H606     H      0.620260000000     0.838130000000     0.601100000000     0.100711   
H607     H      0.719860000000     0.873030000000     0.596610000000     0.0331293  
H608     H      0.712470000000     0.830810000000     0.598390000000     0.0431431  
H609     H      0.672160000000     0.879160000000     0.670870000000     0.0469361  
H610     H      0.664670000000     0.836960000000     0.672440000000     0.0391055  
H611     H      0.521130000000     0.620100000000     0.638480000000     0.0976996  
H612     H      0.864440000000     0.590610000000     0.631590000000     0.103044   
H613     H      0.946680000000     0.580510000000     0.676580000000     0.0443097  
H614     H      0.955330000000     0.622550000000     0.683000000000     0.0296447  
H615     H      0.930270000000     0.588340000000     0.587090000000     0.0291609  
H616     H      0.938780000000     0.630390000000     0.593660000000     0.0390683  
H617     H      0.916630000000     0.909340000000     0.878740000000     0.0988417  
H618     H      0.966100000000     0.801810000000     0.892990000000     0.100787   
H619     H      0.954160000000     0.854910000000     0.939890000000     0.0482073  
H620     H      0.899310000000     0.857670000000     0.916560000000     0.0381458  
H621     H      0.983550000000     0.853440000000     0.854760000000     0.0380749  
H622     H      0.928660000000     0.856130000000     0.831500000000     0.0474699  
H623     H      0.877180000000     0.583590000000     0.838090000000     0.0973262  
H624     H      0.507570000000     0.627140000000     0.932730000000     0.0995824  
H625     H      0.911280000000     0.625940000000     0.917380000000     0.0400556  
H626     H      0.911730000000     0.583440000000     0.914910000000     0.0342157  
H627     H      0.972850000000     0.627430000000     0.856030000000     0.0390866  
H628     H      0.973260000000     0.584950000000     0.853430000000     0.0437084  
H629     H      0.624220000000     0.848130000000     0.918330000000     0.0986539  
H630     H      0.758950000000     0.862600000000     0.850070000000     0.100403   
H631     H      0.670770000000     0.878770000000     0.847440000000     0.0389929  
H632     H      0.703480000000     0.889340000000     0.899740000000     0.0463561  
H633     H      0.679690000000     0.821350000000     0.868260000000     0.04057    
H634     H      0.712180000000     0.831850000000     0.920760000000     0.0386902  
H635     H      0.899460000000     0.904980000000     0.630870000000     0.0994147  
H636     H      0.984660000000     0.806150000000     0.638540000000     0.102132   
H637     H      0.895750000000     0.849660000000     0.613550000000     0.0370075  
H638     H      0.945770000000     0.851190000000     0.579150000000     0.0466599  
H639     H      0.938120000000     0.859720000000     0.690670000000     0.0442284  
H640     H      0.988180000000     0.861450000000     0.656360000000     0.0354198  
N113     N      0.671620000000     0.566820000000     0.659220000000    -0.217126   
N114     N      0.714530000000     0.643180000000     0.610180000000    -0.216811   
N115     N      0.689100000000     0.628910000000     0.827330000000    -0.215591   
N116     N      0.694710000000     0.581750000000     0.941050000000    -0.215464   
N117     N      0.750860000000     0.850610000000     0.655780000000    -0.215884   
N118     N      0.633720000000     0.859550000000     0.613360000000    -0.214955   
N119     N      0.502620000000     0.599200000000     0.640980000000    -0.219783   
N120     N      0.882880000000     0.611560000000     0.629190000000    -0.22065    
N121     N      0.937690000000     0.898490000000     0.903740000000    -0.214346   
N122     N      0.945270000000     0.812580000000     0.867680000000    -0.214485   
N123     N      0.888000000000     0.605540000000     0.851280000000    -0.215298   
N124     N      0.996590000000     0.605220000000     0.919570000000    -0.21425    
N125     N      0.640470000000     0.869960000000     0.914780000000    -0.215684   
N126     N      0.742780000000     0.840760000000     0.853620000000    -0.216327   
N127     N      0.924980000000     0.894880000000     0.610620000000    -0.216625   
N128     N      0.959220000000     0.816150000000     0.659040000000    -0.216475   
O449     O      0.952610000000     0.944060000000     0.601620000000    -0.380496   
O450     O      0.987160000000     0.902170000000     0.565680000000    -0.37274    
O451     O      0.995010000000     0.551530000000     0.926690000000    -0.382811   
O452     O      0.539720000000     0.580530000000     0.975990000000    -0.371093   
O453     O      0.964370000000     0.947400000000     0.921230000000    -0.374175   
O454     O      0.991960000000     0.904020000000     0.960030000000    -0.373739   
O455     O      0.994740000000     0.546900000000     0.621170000000    -0.384347   
O456     O      0.547580000000     0.577520000000     0.586350000000    -0.384567   
O457     O      0.920220000000     0.507700000000     0.597370000000    -0.336713   
O458     O      0.999350000000     0.983390000000     0.678880000000    -0.550273   
O459     O      0.923980000000     0.508480000000     0.947710000000    -0.523754   
O460     O      0.506950000000     0.996600000000     0.860690000000    -0.367893   
O461     O      0.989660000000     0.963940000000     0.517840000000    -0.495493   
O462     O      0.506120000000     0.523870000000     0.523390000000    -0.636466   
O463     O      0.651260000000     0.517950000000     0.634830000000    -0.383957   
O464     O      0.628400000000     0.561380000000     0.592490000000    -0.360147   
O465     O      0.640910000000     0.923220000000     0.929500000000    -0.373377   
O466     O      0.588420000000     0.891250000000     0.962880000000    -0.374916   
O467     O      0.663780000000     0.532000000000     0.934450000000    -0.370226   
O468     O      0.641140000000     0.567450000000     0.991480000000    -0.392798   
O469     O      0.635310000000     0.913620000000     0.609100000000    -0.378446   
O470     O      0.585670000000     0.885650000000     0.564680000000    -0.373484   
O471     O      0.703420000000     0.964550000000     0.591800000000    -0.530776   
O472     O      0.621840000000     0.960550000000     0.681890000000    -0.342213   
O473     O      0.708790000000     0.970750000000     0.950540000000    -0.345109   
O474     O      0.627100000000     0.980500000000     0.864010000000    -0.530581   
O475     O      0.636820000000     0.504200000000     0.527440000000    -0.633142   
O476     O      0.618980000000     0.944960000000     0.519260000000    -0.493359   
O477     O      0.569560000000     0.510370000000     0.597940000000    -0.500148   
O478     O      0.557490000000     0.957100000000     0.946270000000    -0.625716   
O479     O      0.551610000000     0.950770000000     0.592540000000    -0.629134   
O480     O      0.573390000000     0.518010000000     0.951760000000    -0.502052   
O481     O      0.918890000000     0.763600000000     0.850140000000    -0.373693   
O482     O      0.891710000000     0.806830000000     0.810620000000    -0.374687   
O483     O      0.890640000000     0.663790000000     0.649280000000    -0.386618   
O484     O      0.838080000000     0.632990000000     0.684220000000    -0.384296   
O485     O      0.932110000000     0.766840000000     0.668260000000    -0.37801    
O486     O      0.897490000000     0.808550000000     0.704600000000    -0.37356    
O487     O      0.889270000000     0.659240000000     0.844180000000    -0.385486   
O488     O      0.844890000000     0.630090000000     0.794700000000    -0.371231   
O489     O      0.960540000000     0.702970000000     0.826770000000    -0.339863   
O490     O      0.874500000000     0.714250000000     0.909700000000    -0.525671   
O491     O      0.964990000000     0.702350000000     0.681120000000    -0.526768   
O492     O      0.891730000000     0.726060000000     0.591730000000    -0.353464   
O493     O      0.895010000000     0.746790000000     0.753680000000    -0.496384   
O494     O      0.878770000000     0.686720000000     0.748170000000    -0.636528   
O495     O      0.719930000000     0.678650000000     0.834260000000    -0.371641   
O496     O      0.743350000000     0.643130000000     0.777750000000    -0.392816   
O497     O      0.749670000000     0.796530000000     0.660090000000    -0.382073   
O498     O      0.799020000000     0.824710000000     0.704580000000    -0.374345   
O499     O      0.734610000000     0.692130000000     0.634390000000    -0.378473   
O500     O      0.757410000000     0.648860000000     0.677120000000    -0.359698   
O501     O      0.742650000000     0.787470000000     0.839180000000    -0.373701   
O502     O      0.795280000000     0.819450000000     0.806130000000    -0.375431   
O503     O      0.675560000000     0.739710000000     0.816680000000    -0.525005   
O504     O      0.755060000000     0.730380000000     0.905580000000    -0.356735   
O505     O      0.681760000000     0.745460000000     0.674360000000    -0.351923   
O506     O      0.766310000000     0.749460000000     0.587790000000    -0.523076   
O507     O      0.748120000000     0.706250000000     0.741280000000    -0.633669   
O508     O      0.765620000000     0.765500000000     0.749380000000    -0.495314   
O509     O      0.810290000000     0.692720000000     0.818370000000    -0.501433   
O510     O      0.834290000000     0.759500000000     0.677550000000    -0.632449   
O511     O      0.825950000000     0.753710000000     0.823690000000    -0.627541   
O512     O      0.816660000000     0.699960000000     0.672230000000    -0.501348   
Zr85     Zr     0.996990000000     0.991490000000     0.592530000000     1.3445     
Zr86     Zr     0.501300000000     0.995930000000     0.948600000000     1.34365    
Zr87     Zr     0.624590000000     0.970420000000     0.595110000000     1.35866    
Zr88     Zr     0.629600000000     0.979120000000     0.951200000000     1.34076    
Zr89     Zr     0.545970000000     0.924690000000     0.516340000000     1.37204    
Zr90     Zr     0.579610000000     0.542840000000     0.528730000000     1.38353    
Zr91     Zr     0.882260000000     0.714930000000     0.822860000000     1.37734    
Zr92     Zr     0.889120000000     0.718910000000     0.679130000000     1.38039    
Zr93     Zr     0.753990000000     0.731550000000     0.817470000000     1.3658     
Zr94     Zr     0.761430000000     0.739800000000     0.673610000000     1.38427    
Zr95     Zr     0.838500000000     0.785910000000     0.753590000000     1.37348    
Zr96     Zr     0.805410000000     0.667660000000     0.741420000000     1.38412    


