data_structure

_audit_creation_method RASPA-1.0
_audit_creation_date 2023-5-9
_audit_author_name 'Poobodin Mano'

_cell_length_a    40.4492
_cell_length_b    41.7726
_cell_length_c    41.7783
_cell_angle_alpha 90
_cell_angle_beta  90
_cell_angle_gamma 90
_cell_volume      70591.5

_symmetry_cell_setting          triclinic
_symmetry_space_group_name_Hall 'P 1'
_symmetry_space_group_name_H-M  'P 1'
_symmetry_Int_Tables_number     1

_symmetry_equiv_pos_as_xyz 'x,y,z'

loop_
_atom_site_label
_atom_site_type_symbol
_atom_site_fract_x
_atom_site_fract_y
_atom_site_fract_z
_atom_site_charge
C1       C      0.442700000000     0.013440000000     0.172770000000     0.390038   
C2       C      0.499560000000     0.063170000000     0.347270000000     0.388824   
C3       C      0.523640000000     0.070230000000     0.178750000000     0.386558   
C4       C      0.418940000000     0.990060000000     0.331680000000     0.392558   
C5       C      0.991700000000     0.412670000000     0.333240000000     0.392579   
C6       C      0.103900000000     0.496630000000     0.186110000000     0.38812    
C7       C      0.074570000000     0.496710000000     0.350150000000     0.393473   
C8       C      0.031450000000     0.416480000000     0.173370000000     0.3983     
C9       C      0.082300000000     0.163010000000     0.008400000000     0.389371   
C10      C      0.004100000000     0.334930000000     0.087060000000     0.399166   
C11      C      0.986920000000     0.172660000000     0.080980000000     0.385343   
C12      C      0.101770000000     0.328840000000     0.017240000000     0.390389   
C13      C      0.546590000000     0.348590000000     0.446470000000     0.395113   
C14      C      0.424790000000     0.195410000000     0.506150000000     0.391098   
C15      C      0.461060000000     0.358800000000     0.515310000000     0.395354   
C16      C      0.509160000000     0.186550000000     0.429270000000     0.39023    
C17      C      0.369390000000     0.055380000000     0.978550000000     0.387627   
C18      C      0.182370000000     0.022660000000     0.064480000000     0.39115    
C19      C      0.352950000000     0.987330000000     0.061770000000     0.390179   
C20      C      0.204250000000     0.099330000000     0.978030000000     0.390275   
C21      C      0.201680000000     0.506830000000     0.431580000000     0.392012   
C22      C      0.346250000000     0.423360000000     0.548790000000     0.391417   
C23      C      0.179620000000     0.451410000000     0.528760000000     0.395481   
C24      C      0.368970000000     0.476140000000     0.452280000000     0.391008   
C25      C      0.374700000000     0.371540000000     0.974930000000    -0.0102495  
C26      C      0.409340000000     0.390720000000     0.517860000000    -0.00727367 
C27      C      0.398210000000     0.124140000000     0.001430000000    -0.00321965 
C28      C      0.406740000000     0.121420000000     0.487250000000    -0.00738958 
C29      C      0.152120000000     0.398960000000     0.535670000000    -0.00674373 
C30      C      0.124070000000     0.384590000000     0.021360000000    -0.00419626 
C31      C      0.137830000000     0.136540000000     0.009110000000    -0.00710443 
C32      C      0.150760000000     0.129050000000     0.975500000000    -0.0107809  
C33      C      0.395870000000     0.494420000000     0.383140000000    -0.00464708 
C34      C      0.393350000000     0.959980000000     0.400690000000    -0.00595846 
C35      C      0.128300000000     0.993200000000     0.377580000000    -0.0151502  
C36      C      0.144440000000     0.506400000000     0.409080000000    -0.0120351  
C37      C      0.126420000000     0.007040000000     0.133290000000    -0.00811572 
C38      C      0.162530000000     0.514600000000     0.118730000000    -0.0124604  
C39      C      0.382910000000     0.999270000000     0.112770000000    -0.0210721  
C40      C      0.419000000000     0.010100000000     0.117990000000    -0.00228877 
C41      C      0.499180000000     0.132330000000     0.405590000000    -0.0114457  
C42      C      0.001740000000     0.124570000000     0.369760000000    -0.0124031  
C43      C      0.004350000000     0.391460000000     0.386870000000    -0.0114519  
C44      C      0.542670000000     0.375890000000     0.393990000000    -0.00812377 
C45      C      0.036710000000     0.360420000000     0.155270000000    -0.00553072 
C46      C      0.509430000000     0.348220000000     0.147440000000    -0.00801076 
C47      C      0.998590000000     0.122430000000     0.110350000000    -0.0137425  
C48      C      0.508630000000     0.119480000000     0.147950000000    -0.0106144  
C49      C      0.480220000000     0.991460000000     0.643080000000     0.393998   
C50      C      0.491440000000     0.058040000000     0.834480000000     0.385954   
C51      C      0.540620000000     0.068320000000     0.671840000000     0.39107    
C52      C      0.413670000000     0.980250000000     0.794440000000     0.391511   
C53      C      0.000370000000     0.408960000000     0.813380000000     0.391916   
C54      C      0.134050000000     0.515840000000     0.702790000000     0.391337   
C55      C      0.061950000000     0.497000000000     0.853650000000     0.390619   
C56      C      0.083060000000     0.431530000000     0.670710000000     0.400236   
C57      C      0.089320000000     0.168810000000     0.506910000000     0.389973   
C58      C      0.059210000000     0.347730000000     0.589440000000     0.397329   
C59      C      0.008340000000     0.190990000000     0.587830000000     0.384959   
C60      C      0.134840000000     0.329450000000     0.508900000000     0.394819   
C61      C      0.525560000000     0.342830000000     0.935930000000     0.392063   
C62      C      0.420850000000     0.179570000000     0.996380000000     0.387465   
C63      C      0.441020000000     0.346200000000     0.009350000000     0.397726   
C64      C      0.506670000000     0.177720000000     0.922080000000     0.386893   
C65      C      0.378030000000     0.071020000000     0.502050000000     0.390348   
C66      C      0.189330000000     0.041940000000     0.585960000000     0.392519   
C67      C      0.360140000000     0.025130000000     0.600150000000     0.393828   
C68      C      0.208930000000     0.097270000000     0.484900000000     0.390535   
C69      C      0.179260000000     0.525230000000     0.905200000000     0.392373   
C70      C      0.322220000000     0.401980000000     0.976430000000     0.393372   
C71      C      0.158930000000     0.448260000000     0.987690000000     0.389782   
C72      C      0.341640000000     0.468450000000     0.901440000000     0.397484   
C73      C      0.401070000000     0.397370000000     0.552920000000    -0.00645082 
C74      C      0.385970000000     0.372280000000     0.009820000000    -0.00253206 
C75      C      0.397800000000     0.143020000000     0.515540000000    -0.00413684 
C76      C      0.402530000000     0.104980000000     0.970390000000    -0.009765   
C77      C      0.124430000000     0.398800000000     0.987510000000    -0.011919   
C78      C      0.163150000000     0.381830000000     0.504880000000    -0.00586084 
C79      C      0.140600000000     0.135330000000     0.508430000000    -0.0105868  
C80      C      0.153090000000     0.121690000000     0.476620000000    -0.00879827 
C81      C      0.371620000000     0.489560000000     0.833570000000    -0.00904125 
C82      C      0.365040000000     0.952570000000     0.854720000000    -0.00390087 
C83      C      0.112090000000     0.992790000000     0.894140000000    -0.0106646  
C84      C      0.119940000000     0.532710000000     0.891710000000    -0.00480964 
C85      C      0.169960000000     0.015450000000     0.654190000000    -0.0027366  
C86      C      0.165500000000     0.552310000000     0.640450000000    -0.00294658 
C87      C      0.419320000000     0.030850000000     0.615390000000     0.00342577 
C88      C      0.432250000000     0.997200000000     0.606830000000    -0.011086   
C89      C      0.496110000000     0.123730000000     0.896640000000    -0.0118155  
C90      C      0.992130000000     0.112260000000     0.860620000000    -0.012754   
C91      C      0.996140000000     0.384880000000     0.867760000000    -0.0126411  
C92      C      0.522750000000     0.368060000000     0.881790000000    -0.00870623 
C93      C      0.107320000000     0.379240000000     0.655940000000    -0.00617879 
C94      C      0.552590000000     0.349820000000     0.654300000000    -0.010466   
C95      C      0.011610000000     0.136250000000     0.611430000000    -0.013711   
C96      C      0.522970000000     0.119350000000     0.645570000000    -0.00920762 
C97      C      0.443670000000     0.504300000000     0.168820000000     0.388579   
C98      C      0.497830000000     0.564900000000     0.341860000000     0.389919   
C99      C      0.518420000000     0.566500000000     0.172930000000     0.387829   
C100     C      0.420020000000     0.488090000000     0.328770000000     0.392311   
C101     C      0.990120000000     0.912900000000     0.332360000000     0.391644   
C102     C      0.101800000000     0.998270000000     0.187140000000     0.382514   
C103     C      0.073760000000     0.992560000000     0.351600000000     0.393857   
C104     C      0.020340000000     0.922250000000     0.170610000000     0.39527    
C105     C      0.083650000000     0.664000000000     0.014840000000     0.388061   
C106     C      0.997300000000     0.841350000000     0.076060000000     0.398123   
C107     C      0.984860000000     0.678050000000     0.078860000000     0.387179   
C108     C      0.103440000000     0.829910000000     0.020720000000     0.391198   
C109     C      0.548160000000     0.850090000000     0.444550000000     0.394899   
C110     C      0.426740000000     0.695240000000     0.489560000000     0.39346    
C111     C      0.459890000000     0.858140000000     0.510690000000     0.395661   
C112     C      0.514340000000     0.688000000000     0.422660000000     0.390962   
C113     C      0.368300000000     0.555500000000     0.971830000000     0.386206   
C114     C      0.183950000000     0.520100000000     0.062930000000     0.390615   
C115     C      0.354020000000     0.482920000000     0.053870000000     0.388919   
C116     C      0.203790000000     0.600080000000     0.981020000000     0.390184   
C117     C      0.201110000000     0.000190000000     0.432640000000     0.403007   
C118     C      0.347050000000     0.922620000000     0.550490000000     0.392095   
C119     C      0.179590000000     0.949760000000     0.532240000000     0.394923   
C120     C      0.368680000000     0.971990000000     0.453620000000     0.390534   
C121     C      0.376480000000     0.873050000000     0.003780000000    -0.00215854 
C122     C      0.408060000000     0.889510000000     0.516400000000    -0.00774702 
C123     C      0.401060000000     0.625060000000     0.990650000000    -0.0157004  
C124     C      0.405150000000     0.627460000000     0.515500000000    -0.00669188 
C125     C      0.151910000000     0.897450000000     0.539780000000    -0.00670622 
C126     C      0.125060000000     0.885670000000     0.025970000000    -0.00307181 
C127     C      0.138810000000     0.637090000000     0.016450000000    -0.00752213 
C128     C      0.150580000000     0.630380000000     0.982250000000    -0.0104286  
C129     C      0.395450000000     0.993670000000     0.386490000000    -0.0142798  
C130     C      0.393030000000     0.461830000000     0.399550000000    -0.00761228 
C131     C      0.129010000000     0.499230000000     0.376280000000    -0.0110138  
C132     C      0.143860000000     0.999100000000     0.410510000000    -0.0156105  
C133     C      0.128940000000     0.503780000000     0.132280000000    -0.0116713  
C134     C      0.159880000000     0.018350000000     0.119900000000    -0.00753388 
C135     C      0.384180000000     0.490940000000     0.105460000000    -0.0101241  
C136     C      0.420660000000     0.498580000000     0.113570000000    -0.0138743  
C137     C      0.502660000000     0.634510000000     0.398760000000    -0.0112957  
C138     C      0.000010000000     0.625970000000     0.361870000000    -0.0121251  
C139     C      0.004060000000     0.890710000000     0.385400000000    -0.0105825  
C140     C      0.542700000000     0.878190000000     0.392760000000    -0.0077936  
C141     C      0.017880000000     0.867270000000     0.148210000000    -0.00795844 
C142     C      0.489900000000     0.856840000000     0.135900000000    -0.00789523 
C143     C      0.993690000000     0.625520000000     0.106050000000    -0.0130451  
C144     C      0.502930000000     0.617080000000     0.143820000000    -0.0103967  
C145     C      0.481830000000     0.495090000000     0.639590000000     0.39613    
C146     C      0.488050000000     0.562830000000     0.830660000000     0.386603   
C147     C      0.539430000000     0.572060000000     0.668320000000     0.390584   
C148     C      0.411370000000     0.485090000000     0.788410000000     0.393056   
C149     C      0.001830000000     0.902360000000     0.814440000000     0.391154   
C150     C      0.134040000000     0.010470000000     0.702200000000     0.390672   
C151     C      0.066240000000     0.990590000000     0.854940000000     0.391369   
C152     C      0.080460000000     0.925360000000     0.670440000000     0.399329   
C153     C      0.087810000000     0.668070000000     0.503650000000     0.39054    
C154     C      0.052200000000     0.845020000000     0.587300000000     0.397832   
C155     C      0.001630000000     0.688420000000     0.579220000000     0.382708   
C156     C      0.133330000000     0.828430000000     0.510860000000     0.394384   
C157     C      0.539740000000     0.840140000000     0.930670000000     0.393841   
C158     C      0.424930000000     0.680240000000     0.985860000000     0.386122   
C159     C      0.447300000000     0.847190000000     0.983740000000     0.394013   
C160     C      0.518920000000     0.675080000000     0.921530000000     0.388923   
C161     C      0.377910000000     0.574430000000     0.512810000000     0.394308   
C162     C      0.189400000000     0.542900000000     0.586270000000     0.391856   
C163     C      0.360390000000     0.524480000000     0.600130000000     0.393794   
C164     C      0.209730000000     0.600770000000     0.487560000000     0.390919   
C165     C      0.183280000000     0.021200000000     0.906240000000     0.3939     
C166     C      0.323930000000     0.902220000000     0.995240000000     0.391068   
C167     C      0.160120000000     0.948120000000     0.991350000000     0.390671   
C168     C      0.345720000000     0.965680000000     0.909700000000     0.393928   
C169     C      0.401850000000     0.896330000000     0.551890000000    -0.00649322 
C170     C      0.393910000000     0.873470000000     0.971390000000    -0.00858147 
C171     C      0.402270000000     0.641410000000     0.481690000000    -0.00529738 
C172     C      0.401570000000     0.604450000000     0.960280000000    -0.00533644 
C173     C      0.126020000000     0.898510000000     0.991610000000    -0.0118354  
C174     C      0.162460000000     0.880510000000     0.508800000000    -0.00599695 
C175     C      0.138820000000     0.634690000000     0.508690000000    -0.0105309  
C176     C      0.154210000000     0.624720000000     0.476730000000    -0.0074952  
C177     C      0.375720000000     0.984840000000     0.841080000000    -0.0142208  
C178     C      0.359120000000     0.457290000000     0.845640000000    -0.00425522 
C179     C      0.106810000000     0.498240000000     0.894020000000    -0.00572599 
C180     C      0.124500000000     0.027410000000     0.890660000000    -0.000289317
C181     C      0.171290000000     0.519320000000     0.655710000000    -0.00822049 
C182     C      0.165180000000     0.049180000000     0.640290000000    -0.00443334 
C183     C      0.419600000000     0.532780000000     0.613860000000    -0.000227397
C184     C      0.434200000000     0.500360000000     0.602960000000    -0.00556923 
C185     C      0.502920000000     0.622850000000     0.895270000000    -0.0115839  
C186     C      0.991260000000     0.616790000000     0.859860000000    -0.0127526  
C187     C      0.003510000000     0.876990000000     0.867920000000    -0.013481   
C188     C      0.533570000000     0.864660000000     0.876900000000    -0.00731381 
C189     C      0.101010000000     0.872370000000     0.653390000000    -0.00584822 
C190     C      0.544050000000     0.847000000000     0.652240000000    -0.0104787  
C191     C      0.007740000000     0.634850000000     0.604540000000    -0.0148446  
C192     C      0.518810000000     0.620750000000     0.639550000000    -0.00893585 
C193     C      0.941500000000     0.022150000000     0.168050000000     0.390985   
C194     C      0.000010000000     0.070370000000     0.344670000000     0.385864   
C195     C      0.025940000000     0.076880000000     0.176530000000     0.387453   
C196     C      0.915280000000     0.001490000000     0.327600000000     0.401999   
C197     C      0.499750000000     0.406470000000     0.335800000000     0.393259   
C198     C      0.606030000000     0.496700000000     0.187540000000     0.386969   
C199     C      0.579460000000     0.495360000000     0.352110000000     0.391157   
C200     C      0.537930000000     0.413270000000     0.175390000000     0.398715   
C201     C      0.581450000000     0.161440000000     0.009290000000     0.390573   
C202     C      0.507240000000     0.332760000000     0.090400000000     0.400482   
C203     C      0.487680000000     0.171010000000     0.083520000000     0.383987   
C204     C      0.601710000000     0.327400000000     0.017510000000     0.390247   
C205     C      0.053800000000     0.355770000000     0.434850000000     0.394758   
C206     C      0.931910000000     0.211330000000     0.509430000000     0.389631   
C207     C      0.978880000000     0.372280000000     0.511950000000     0.393547   
C208     C      0.009330000000     0.194730000000     0.426030000000     0.387273   
C209     C      0.868070000000     0.056030000000     0.975530000000     0.386982   
C210     C      0.682600000000     0.021050000000     0.064800000000     0.390121   
C211     C      0.853630000000     0.988900000000     0.059450000000     0.391114   
C212     C      0.702590000000     0.098250000000     0.977060000000     0.390635   
C213     C      0.706910000000     0.513390000000     0.432690000000     0.389902   
C214     C      0.861480000000     0.436270000000     0.543450000000     0.389956   
C215     C      0.692490000000     0.452090000000     0.527950000000     0.400205   
C216     C      0.876380000000     0.492830000000     0.450000000000     0.394447   
C217     C      0.874710000000     0.372420000000     0.970580000000    -0.0100249  
C218     C      0.928640000000     0.406710000000     0.513330000000    -0.00765014 
C219     C      0.898790000000     0.125170000000     0.997320000000    -0.0141503  
C220     C      0.905380000000     0.139700000000     0.489740000000    -0.00839379 
C221     C      0.671350000000     0.397700000000     0.535450000000    -0.00996494 
C222     C      0.624250000000     0.383140000000     0.021050000000    -0.00457292 
C223     C      0.636820000000     0.134800000000     0.009180000000    -0.00676987 
C224     C      0.648890000000     0.127570000000     0.975230000000    -0.0105263  
C225     C      0.893290000000     0.508870000000     0.378560000000    -0.00401651 
C226     C      0.897780000000     0.975880000000     0.398140000000    -0.0122112  
C227     C      0.633030000000     0.996130000000     0.379840000000    -0.0231623  
C228     C      0.649350000000     0.509200000000     0.410780000000    -0.0126274  
C229     C      0.627780000000     0.005780000000     0.135040000000    -0.0045084  
C230     C      0.663430000000     0.513580000000     0.118390000000    -0.0125271  
C231     C      0.883860000000     0.002750000000     0.109770000000    -0.000294635
C232     C      0.918830000000     0.017110000000     0.113100000000    -0.0113988  
C233     C      0.998740000000     0.139790000000     0.403440000000    -0.0118089  
C234     C      0.500130000000     0.117440000000     0.371790000000    -0.011617   
C235     C      0.506360000000     0.385960000000     0.391090000000    -0.00999583 
C236     C      0.040920000000     0.382200000000     0.383390000000    -0.00676652 
C237     C      0.544610000000     0.357640000000     0.156840000000    -0.00580631 
C238     C      0.002070000000     0.351500000000     0.143850000000    -0.00888426 
C239     C      0.498120000000     0.119840000000     0.112160000000    -0.0138661  
C240     C      0.011820000000     0.125530000000     0.145050000000    -0.0105493  
C241     C      0.985580000000     0.997690000000     0.640400000000     0.392264   
C242     C      0.991150000000     0.059600000000     0.832790000000     0.386688   
C243     C      0.040300000000     0.075530000000     0.670710000000     0.390569   
C244     C      0.918130000000     0.978250000000     0.791110000000     0.390618   
C245     C      0.492140000000     0.405870000000     0.818010000000     0.39089    
C246     C      0.630700000000     0.503850000000     0.703170000000     0.388384   
C247     C      0.559650000000     0.492710000000     0.855470000000     0.390973   
C248     C      0.571030000000     0.419410000000     0.672710000000     0.398839   
C249     C      0.583920000000     0.162420000000     0.515060000000     0.389829   
C250     C      0.533040000000     0.336860000000     0.599800000000     0.399149   
C251     C      0.496000000000     0.176730000000     0.589760000000     0.386407   
C252     C      0.617700000000     0.325210000000     0.528720000000     0.397691   
C253     C      0.028040000000     0.343570000000     0.933290000000     0.392188   
C254     C      0.921680000000     0.180650000000     0.992630000000     0.386372   
C255     C      0.941420000000     0.347420000000     0.004870000000     0.397922   
C256     C      0.008120000000     0.178420000000     0.920390000000     0.388076   
C257     C      0.879400000000     0.087490000000     0.503890000000     0.389319   
C258     C      0.694440000000     0.039510000000     0.589730000000     0.390736   
C259     C      0.866400000000     0.034450000000     0.600770000000     0.39472    
C260     C      0.708480000000     0.102400000000     0.491280000000     0.391041   
C261     C      0.676940000000     0.524240000000     0.904460000000     0.392257   
C262     C      0.822050000000     0.402470000000     0.972970000000     0.393711   
C263     C      0.658600000000     0.447250000000     0.987070000000     0.389667   
C264     C      0.839880000000     0.469690000000     0.898070000000     0.396545   
C265     C      0.918560000000     0.414490000000     0.547730000000    -0.00737589 
C266     C      0.886310000000     0.373340000000     0.005350000000    -0.00251735 
C267     C      0.901900000000     0.160460000000     0.519680000000    -0.00489101 
C268     C      0.900790000000     0.105770000000     0.966220000000    -0.00572594 
C269     C      0.624520000000     0.397470000000     0.987250000000    -0.0119185  
C270     C      0.638840000000     0.379720000000     0.533600000000    -0.0121033  
C271     C      0.637050000000     0.131910000000     0.516800000000    -0.0105757  
C272     C      0.650890000000     0.122800000000     0.483910000000    -0.00781616 
C273     C      0.874860000000     0.489100000000     0.829670000000    -0.00984248 
C274     C      0.863030000000     0.953250000000     0.851660000000    -0.0062877  
C275     C      0.609490000000     0.989640000000     0.895890000000    -0.010993   
C276     C      0.617290000000     0.530590000000     0.891850000000    -0.0045069  
C277     C      0.666820000000     0.005400000000     0.655240000000     0.00259259 
C278     C      0.669190000000     0.542480000000     0.643510000000    -0.00558065 
C279     C      0.925570000000     0.039400000000     0.616000000000    -0.00200524 
C280     C      0.937840000000     0.006280000000     0.604620000000     0.000141706
C281     C      0.996360000000     0.124520000000     0.895360000000    -0.0113306  
C282     C      0.493890000000     0.111080000000     0.861810000000    -0.0127374  
C283     C      0.489340000000     0.383040000000     0.872880000000    -0.0134812  
C284     C      0.028040000000     0.368330000000     0.878820000000    -0.00958542 
C285     C      0.587340000000     0.364240000000     0.658160000000    -0.0041976  
C286     C      0.076200000000     0.361540000000     0.644830000000    -0.00828424 
C287     C      0.505690000000     0.122660000000     0.612760000000    -0.014439   
C288     C      0.022260000000     0.127170000000     0.645860000000    -0.0103285  
C289     C      0.942420000000     0.510430000000     0.164280000000     0.389783   
C290     C      0.997370000000     0.570920000000     0.338810000000     0.388547   
C291     C      0.019990000000     0.570700000000     0.170170000000     0.389269   
C292     C      0.915930000000     0.498290000000     0.324650000000     0.394486   
C293     C      0.497290000000     0.905360000000     0.335790000000     0.392792   
C294     C      0.604160000000     0.996260000000     0.189260000000     0.385332   
C295     C      0.578420000000     0.990540000000     0.354160000000     0.391105   
C296     C      0.526930000000     0.915830000000     0.173850000000     0.396138   
C297     C      0.582800000000     0.661980000000     0.015890000000     0.389321   
C298     C      0.498600000000     0.838470000000     0.080310000000     0.399291   
C299     C      0.484940000000     0.675510000000     0.081130000000     0.38589    
C300     C      0.603330000000     0.827910000000     0.022570000000     0.390852   
C301     C      0.054760000000     0.856890000000     0.432620000000     0.393562   
C302     C      0.931250000000     0.711020000000     0.491510000000     0.393065   
C303     C      0.977030000000     0.871300000000     0.507820000000     0.39387    
C304     C      0.012980000000     0.695720000000     0.418120000000     0.388502   
C305     C      0.866870000000     0.556390000000     0.968840000000     0.385613   
C306     C      0.683900000000     0.518990000000     0.062210000000     0.389711   
C307     C      0.854070000000     0.483570000000     0.050870000000     0.388925   
C308     C      0.702230000000     0.599620000000     0.979910000000     0.390529   
C309     C      0.706050000000     0.007650000000     0.434400000000     0.392859   
C310     C      0.861560000000     0.935610000000     0.545700000000     0.390834   
C311     C      0.691890000000     0.950950000000     0.532990000000     0.399164   
C312     C      0.875580000000     0.988650000000     0.451710000000     0.394331   
C313     C      0.877750000000     0.873860000000     0.000530000000    -0.00240523 
C314     C      0.926790000000     0.905560000000     0.512480000000    -0.00833123 
C315     C      0.902230000000     0.626110000000     0.986970000000    -0.0165435  
C316     C      0.903740000000     0.644830000000     0.518700000000    -0.00633643 
C317     C      0.669850000000     0.897110000000     0.542940000000    -0.0102953  
C318     C      0.625370000000     0.883590000000     0.027400000000    -0.00335515 
C319     C      0.637850000000     0.634990000000     0.016630000000    -0.00729248 
C320     C      0.648920000000     0.629580000000     0.982010000000    -0.00989248 
C321     C      0.893350000000     0.008670000000     0.382280000000     0.00380719 
C322     C      0.898130000000     0.477450000000     0.396850000000    -0.00596429 
C323     C      0.633980000000     0.502120000000     0.377800000000    -0.0115315  
C324     C      0.648490000000     0.002860000000     0.412800000000     9.20696e-05
C325     C      0.629820000000     0.504600000000     0.133270000000    -0.0119044  
C326     C      0.661080000000     0.016420000000     0.120630000000    -0.00888387 
C327     C      0.884580000000     0.492530000000     0.102090000000    -0.00975607 
C328     C      0.920570000000     0.502960000000     0.108890000000    -0.0143677  
C329     C      0.000230000000     0.641620000000     0.395390000000    -0.0120251  
C330     C      0.499840000000     0.619780000000     0.365050000000    -0.0115225  
C331     C      0.505340000000     0.884210000000     0.390600000000    -0.00891633 
C332     C      0.041310000000     0.884280000000     0.381830000000    -0.0068651  
C333     C      0.523910000000     0.861230000000     0.151200000000    -0.00752179 
C334     C      0.985320000000     0.861290000000     0.130690000000    -0.00830461 
C335     C      0.493590000000     0.622770000000     0.108210000000    -0.0135516  
C336     C      0.005630000000     0.621320000000     0.141040000000    -0.0103037  
C337     C      0.987440000000     0.503260000000     0.637060000000     0.397881   
C338     C      0.987300000000     0.565440000000     0.829340000000     0.386874   
C339     C      0.039860000000     0.580750000000     0.667890000000     0.389644   
C340     C      0.915280000000     0.484680000000     0.784910000000     0.391746   
C341     C      0.494090000000     0.900490000000     0.819810000000     0.391366   
C342     C      0.630550000000     0.999450000000     0.703280000000     0.383679   
C343     C      0.563280000000     0.986490000000     0.857130000000     0.390646   
C344     C      0.567490000000     0.914650000000     0.672600000000     0.39801    
C345     C      0.583840000000     0.662520000000     0.512710000000     0.390677   
C346     C      0.526790000000     0.835150000000     0.596890000000     0.39887    
C347     C      0.491700000000     0.674940000000     0.581710000000     0.384782   
C348     C      0.616070000000     0.825140000000     0.531670000000     0.396026   
C349     C      0.042200000000     0.840820000000     0.927430000000     0.394319   
C350     C      0.926040000000     0.681470000000     0.982680000000     0.385061   
C351     C      0.948000000000     0.848470000000     0.979290000000     0.394185   
C352     C      0.020300000000     0.675660000000     0.920040000000     0.388756   
C353     C      0.879630000000     0.590310000000     0.514750000000     0.394321   
C354     C      0.694590000000     0.539650000000     0.588980000000     0.389874   
C355     C      0.866810000000     0.534100000000     0.600170000000     0.395401   
C356     C      0.709610000000     0.605390000000     0.493160000000     0.391981   
C357     C      0.680790000000     0.018970000000     0.906440000000     0.39363    
C358     C      0.824690000000     0.902490000000     0.993300000000     0.391147   
C359     C      0.660210000000     0.946420000000     0.992220000000     0.390107   
C360     C      0.844010000000     0.966170000000     0.907030000000     0.39301    
C361     C      0.918660000000     0.913550000000     0.547360000000    -0.00714242 
C362     C      0.894350000000     0.874550000000     0.967720000000    -0.0084266  
C363     C      0.901950000000     0.659260000000     0.485090000000    -0.00611631 
C364     C      0.899740000000     0.605530000000     0.956660000000    -0.00592732 
C365     C      0.626640000000     0.896430000000     0.993040000000    -0.0120176  
C366     C      0.637160000000     0.879400000000     0.539920000000    -0.0118984  
C367     C      0.636800000000     0.632160000000     0.517010000000    -0.0105003  
C368     C      0.652320000000     0.625750000000     0.484220000000    -0.00691902 
C369     C      0.879720000000     0.982860000000     0.837540000000    -0.0155134  
C370     C      0.857400000000     0.459100000000     0.841930000000    -0.00632563 
C371     C      0.604920000000     0.495940000000     0.895290000000    -0.00600554 
C372     C      0.621630000000     0.024270000000     0.891750000000    -5.44218e-05
C373     C      0.668150000000     0.507910000000     0.655880000000    -0.00889494 
C374     C      0.669160000000     0.040410000000     0.644350000000    -0.00888336 
C375     C      0.925860000000     0.542660000000     0.614000000000     0.000341516
C376     C      0.940230000000     0.511070000000     0.600530000000    -0.00471259 
C377     C      0.003380000000     0.623420000000     0.894420000000    -0.0119032  
C378     C      0.494390000000     0.614570000000     0.860050000000    -0.0127331  
C379     C      0.497740000000     0.876500000000     0.873730000000    -0.0131304  
C380     C      0.038890000000     0.864670000000     0.873090000000    -0.00732784 
C381     C      0.579740000000     0.859170000000     0.655870000000    -0.00417593 
C382     C      0.068210000000     0.857030000000     0.643320000000    -0.00816737 
C383     C      0.503130000000     0.621770000000     0.605780000000    -0.0153961  
C384     C      0.018630000000     0.629750000000     0.639800000000    -0.0106087  
H1       H      0.453860000000     0.037170000000     0.300090000000     0.203731   
H2       H      0.068280000000     0.046160000000     0.220260000000     0.204136   
H3       H      0.051770000000     0.444300000000     0.306920000000     0.207311   
H4       H      0.472010000000     0.437120000000     0.200830000000     0.197646   
H5       H      0.072840000000     0.096480000000     0.270180000000     0.126917   
H6       H      0.123830000000     0.048550000000     0.272180000000     0.186291   
H7       H      0.112110000000     0.438080000000     0.252720000000     0.147827   
H8       H      0.055100000000     0.382640000000     0.286930000000     0.198492   
H9       H      0.463570000000     0.381640000000     0.234740000000     0.129036   
H10      H      0.404260000000     0.435160000000     0.211720000000     0.193764   
H11      H      0.387880000000     0.030130000000     0.251690000000     0.137254   
H12      H      0.444840000000     0.086530000000     0.250990000000     0.194188   
H13      H      0.069100000000     0.386420000000     0.249450000000     0.202545   
H14      H      0.405420000000     0.422250000000     0.249650000000     0.197506   
H15      H      0.467870000000     0.114820000000     0.268540000000     0.202588   
H16      H      0.144710000000     0.015260000000     0.281630000000     0.205775   
H17      H      0.060580000000     0.292900000000     0.062560000000     0.207138   
H18      H      0.448620000000     0.210860000000     0.048620000000     0.206943   
H19      H      0.485920000000     0.318480000000     0.466800000000     0.2136     
H20      H      0.069360000000     0.213080000000     0.456860000000     0.201573   
H21      H      0.443730000000     0.259020000000     0.108550000000     0.129278   
H22      H      0.391060000000     0.258410000000     0.053570000000     0.185844   
H23      H      0.402440000000     0.295140000000     0.470880000000     0.141012   
H24      H      0.467350000000     0.268710000000     0.409920000000     0.211311   
H25      H      0.090050000000     0.253100000000     0.406310000000     0.124644   
H26      H      0.141890000000     0.245850000000     0.447830000000     0.187371   
H27      H      0.104780000000     0.220220000000     0.069460000000     0.147737   
H28      H      0.055940000000     0.262150000000     0.118960000000     0.197397   
H29      H      0.495280000000     0.291740000000     0.391420000000     0.204786   
H30      H      0.163950000000     0.230510000000     0.478070000000     0.203495   
H31      H      0.052370000000     0.222580000000     0.113690000000     0.202073   
H32      H      0.371800000000     0.271760000000     0.020700000000     0.195789   
H33      H      0.234610000000     0.064520000000     0.030810000000     0.207283   
H34      H      0.300450000000     0.441320000000     0.030830000000     0.200001   
H35      H      0.227040000000     0.460300000000     0.477890000000     0.20758    
H36      H      0.339660000000     0.033990000000     0.461180000000     0.203955   
H37      H      0.254830000000     0.448240000000     0.087770000000     0.127082   
H38      H      0.246910000000     0.396860000000     0.044580000000     0.18333    
H39      H      0.284140000000     0.400730000000     0.492020000000     0.147754   
H40      H      0.254610000000     0.437110000000     0.423360000000     0.198892   
H41      H      0.306060000000     0.028420000000     0.402800000000     0.124244   
H42      H      0.301820000000     0.094650000000     0.429440000000     0.187412   
H43      H      0.313850000000     0.094920000000     0.032940000000     0.145796   
H44      H      0.256800000000     0.064470000000     0.093030000000     0.198241   
H45      H      0.294170000000     0.428180000000     0.430890000000     0.202235   
H46      H      0.307470000000     0.126780000000     0.452760000000     0.203077   
H47      H      0.297680000000     0.060940000000     0.087970000000     0.201617   
H48      H      0.221270000000     0.378380000000     0.019120000000     0.204322   
H49      H      0.353760000000     0.376570000000     0.563680000000     0.0949111  
H50      H      0.433470000000     0.395200000000     0.013040000000     0.105589   
H51      H      0.382620000000     0.348580000000     0.963870000000     0.0343559  
H52      H      0.386270000000     0.391720000000     0.961620000000     0.050408   
H53      H      0.401030000000     0.411390000000     0.503150000000     0.0452946  
H54      H      0.396140000000     0.368840000000     0.509650000000     0.0407665  
H55      H      0.371310000000     0.167640000000     0.991440000000     0.096598   
H56      H      0.429070000000     0.076850000000     0.502330000000     0.102197   
H57      H      0.415620000000     0.139190000000     0.535480000000     0.0432514  
H58      H      0.375220000000     0.116050000000     0.013550000000     0.0396805  
H59      H      0.431860000000     0.127650000000     0.478460000000     0.0461334  
H60      H      0.384070000000     0.112860000000     0.952280000000     0.0430517  
H61      H      0.107540000000     0.447900000000     0.989020000000     0.100524   
H62      H      0.185860000000     0.335130000000     0.509290000000     0.101154   
H63      H      0.169520000000     0.392830000000     0.555360000000     0.0436631  
H64      H      0.144580000000     0.387490000000     0.973330000000     0.0496554  
H65      H      0.188500000000     0.389710000000     0.498320000000     0.0446546  
H66      H      0.145340000000     0.394500000000     0.035000000000     0.0401253  
H67      H      0.090040000000     0.113940000000     0.007910000000     0.102966   
H68      H      0.200620000000     0.143380000000     0.468300000000     0.0972359  
H69      H      0.153690000000     0.158110000000     0.513820000000     0.0454128  
H70      H      0.146620000000     0.117460000000     0.025610000000     0.0409229  
H71      H      0.143670000000     0.137070000000     0.456910000000     0.0358618  
H72      H      0.139620000000     0.106320000000     0.966770000000     0.0487481  
H73      H      0.368840000000     0.993590000000     0.341830000000     0.102699   
H74      H      0.417990000000     0.463250000000     0.445130000000     0.101183   
H75      H      0.419620000000     0.505940000000     0.390060000000     0.0465716  
H76      H      0.374960000000     0.008650000000     0.395980000000     0.0407684  
H77      H      0.413700000000     0.446190000000     0.391560000000     0.0430977  
H78      H      0.369920000000     0.948400000000     0.392890000000     0.0459322  
H79      H      0.080850000000     0.496980000000     0.399530000000     0.100924   
H80      H      0.190060000000     0.990750000000     0.385610000000     0.0990066  
H81      H      0.136990000000     0.969820000000     0.367980000000     0.0411349  
H82      H      0.136790000000     0.012080000000     0.360660000000     0.0488086  
H83      H      0.135790000000     0.488710000000     0.427130000000     0.0422442  
H84      H      0.136960000000     0.530610000000     0.417430000000     0.0449655  
H85      H      0.154290000000     0.497240000000     0.177630000000     0.098182   
H86      H      0.134340000000     0.034020000000     0.077100000000     0.101139   
H87      H      0.118530000000     0.984900000000     0.120670000000     0.0420932  
H88      H      0.107230000000     0.025610000000     0.128820000000     0.0456821  
H89      H      0.181110000000     0.495240000000     0.122040000000     0.0471868  
H90      H      0.171200000000     0.535990000000     0.132130000000     0.0367888  
H91      H      0.402410000000     0.469560000000     0.062010000000     0.100703   
H92      H      0.402900000000     0.039660000000     0.156780000000     0.0989576  
H93      H      0.365800000000     0.020000000000     0.115110000000     0.0463461  
H94      H      0.374910000000     0.472210000000     0.122080000000     0.0388165  
H95      H      0.425210000000     0.028480000000     0.099710000000     0.0400126  
H96      H      0.435910000000     0.476440000000     0.112380000000     0.0411986  
H97      H      0.002490000000     0.184710000000     0.378330000000     0.0998417  
H98      H      0.491380000000     0.072020000000     0.395320000000     0.10134    
H99      H      0.518290000000     0.121090000000     0.421090000000     0.0432942  
H100     H      0.474710000000     0.127950000000     0.416900000000     0.0406927  
H101     H      0.026260000000     0.130450000000     0.359260000000     0.0447949  
H102     H      0.982640000000     0.134830000000     0.353580000000     0.0385532  
H103     H      0.491520000000     0.359590000000     0.349640000000     0.0983928  
H104     H      0.064930000000     0.403020000000     0.424160000000     0.102457   
H105     H      0.002340000000     0.416050000000     0.396900000000     0.0480906  
H106     H      0.490950000000     0.369630000000     0.405910000000     0.0358403  
H107     H      0.053590000000     0.400550000000     0.368510000000     0.0323369  
H108     H      0.546470000000     0.352230000000     0.382330000000     0.0441671  
H109     H      0.555890000000     0.400880000000     0.130520000000     0.102743   
H110     H      0.999320000000     0.381860000000     0.102140000000     0.104516   
H111     H      0.055280000000     0.347290000000     0.140670000000     0.032091   
H112     H      0.039680000000     0.353180000000     0.180720000000     0.0419768  
H113     H      0.491540000000     0.362470000000     0.161750000000     0.0395717  
H114     H      0.505490000000     0.322480000000     0.152990000000     0.0473999  
H115     H      0.463430000000     0.156270000000     0.124030000000     0.098367   
H116     H      0.047200000000     0.089480000000     0.133790000000     0.0993775  
H117     H      0.983120000000     0.100490000000     0.108840000000     0.044134   
H118     H      0.019500000000     0.120190000000     0.093160000000     0.0440681  
H119     H      0.486470000000     0.119910000000     0.163740000000     0.0423135  
H120     H      0.523680000000     0.141170000000     0.152940000000     0.0400561  
H121     H      0.454210000000     0.030200000000     0.774930000000     0.207276   
H122     H      0.085020000000     0.052300000000     0.725850000000     0.203215   
H123     H      0.059020000000     0.449450000000     0.803620000000     0.205008   
H124     H      0.500410000000     0.441270000000     0.680980000000     0.201123   
H125     H      0.066760000000     0.100540000000     0.775980000000     0.127274   
H126     H      0.118020000000     0.060700000000     0.800640000000     0.187927   
H127     H      0.133180000000     0.455520000000     0.767110000000     0.146232   
H128     H      0.093190000000     0.405010000000     0.775390000000     0.193369   
H129     H      0.483380000000     0.385370000000     0.709050000000     0.124855   
H130     H      0.404580000000     0.450650000000     0.686100000000     0.205178   
H131     H      0.432450000000     0.041180000000     0.702400000000     0.14161    
H132     H      0.464780000000     0.093840000000     0.723630000000     0.199813   
H133     H      0.076760000000     0.374570000000     0.754800000000     0.205102   
H134     H      0.426180000000     0.422580000000     0.705650000000     0.18902    
H135     H      0.459280000000     0.096290000000     0.763230000000     0.198642   
H136     H      0.149340000000     0.034670000000     0.797720000000     0.204557   
H137     H      0.095700000000     0.299400000000     0.558380000000     0.209711   
H138     H      0.456930000000     0.221770000000     0.557470000000     0.205122   
H139     H      0.470580000000     0.308130000000     0.957590000000     0.212127   
H140     H      0.062300000000     0.204620000000     0.958470000000     0.201471   
H141     H      0.454470000000     0.269190000000     0.614790000000     0.126856   
H142     H      0.403790000000     0.273160000000     0.564310000000     0.185065   
H143     H      0.392290000000     0.281780000000     0.959150000000     0.13866    
H144     H      0.457640000000     0.253880000000     0.901250000000     0.211824   
H145     H      0.084820000000     0.251440000000     0.912240000000     0.124519   
H146     H      0.130950000000     0.244030000000     0.960290000000     0.186063   
H147     H      0.126920000000     0.224630000000     0.563190000000     0.14787    
H148     H      0.093360000000     0.267620000000     0.616840000000     0.197977   
H149     H      0.483080000000     0.279110000000     0.882270000000     0.205187   
H150     H      0.150900000000     0.238660000000     0.994980000000     0.201854   
H151     H      0.080450000000     0.229690000000     0.613780000000     0.202065   
H152     H      0.386480000000     0.293190000000     0.533930000000     0.195472   
H153     H      0.238830000000     0.078880000000     0.545140000000     0.207153   
H154     H      0.314870000000     0.471210000000     0.584000000000     0.204418   
H155     H      0.202640000000     0.465390000000     0.935660000000     0.20492    
H156     H      0.326020000000     0.031250000000     0.931930000000     0.202345   
H157     H      0.258970000000     0.486120000000     0.632390000000     0.126185   
H158     H      0.255900000000     0.424550000000     0.602560000000     0.184788   
H159     H      0.243420000000     0.405400000000     0.925100000000     0.1455     
H160     H      0.219610000000     0.456080000000     0.874570000000     0.198181   
H161     H      0.289000000000     0.044850000000     0.877640000000     0.12383    
H162     H      0.293120000000     0.101730000000     0.917980000000     0.18713    
H163     H      0.314010000000     0.117090000000     0.543750000000     0.144832   
H164     H      0.258580000000     0.096580000000     0.604850000000     0.198006   
H165     H      0.258530000000     0.443110000000     0.870890000000     0.202824   
H166     H      0.303930000000     0.126480000000     0.947720000000     0.202578   
H167     H      0.299870000000     0.094620000000     0.603430000000     0.201552   
H168     H      0.247220000000     0.394280000000     0.577650000000     0.202777   
H169     H      0.325290000000     0.352490000000     0.972620000000     0.0958633  
H170     H      0.459020000000     0.408400000000     0.513980000000     0.103261   
H171     H      0.412290000000     0.420410000000     0.560750000000     0.0441859  
H172     H      0.411590000000     0.378070000000     0.568180000000     0.0373513  
H173     H      0.376020000000     0.350980000000     0.022590000000     0.0393269  
H174     H      0.376280000000     0.394280000000     0.021520000000     0.0404819  
H175     H      0.374240000000     0.187560000000     0.502680000000     0.0981294  
H176     H      0.420810000000     0.056930000000     0.978960000000     0.101879   
H177     H      0.419440000000     0.119190000000     0.017610000000     0.046781   
H178     H      0.372960000000     0.136470000000     0.524790000000     0.0378446  
H179     H      0.427450000000     0.109920000000     0.960300000000     0.041845   
H180     H      0.388630000000     0.125280000000     0.467580000000     0.0423657  
H181     H      0.128870000000     0.444460000000     0.525220000000     0.104685   
H182     H      0.151540000000     0.340400000000     0.020530000000     0.0972923  
H183     H      0.100440000000     0.393200000000     0.975790000000     0.04478    
H184     H      0.126950000000     0.391020000000     0.542660000000     0.0494976  
H185     H      0.100770000000     0.391570000000     0.033670000000     0.0469108  
H186     H      0.146100000000     0.388670000000     0.485120000000     0.0473783  
H187     H      0.089980000000     0.119110000000     0.507390000000     0.101365   
H188     H      0.200010000000     0.148610000000     0.972950000000     0.0965841  
H189     H      0.147840000000     0.159930000000     0.017320000000     0.0430236  
H190     H      0.146570000000     0.117820000000     0.527620000000     0.0412726  
H191     H      0.143010000000     0.148770000000     0.959270000000     0.0340288  
H192     H      0.143360000000     0.097000000000     0.473310000000     0.0481219  
H193     H      0.362440000000     0.980730000000     0.791410000000     0.101035   
H194     H      0.386090000000     0.447500000000     0.888640000000     0.105547   
H195     H      0.393270000000     0.497620000000     0.847900000000     0.0505499  
H196     H      0.355460000000     0.002500000000     0.844480000000     0.0450311  
H197     H      0.373780000000     0.437590000000     0.834690000000     0.0405865  
H198     H      0.339060000000     0.947470000000     0.847620000000     0.041282   
H199     H      0.054350000000     0.493640000000     0.902790000000     0.10108    
H200     H      0.166970000000     0.027550000000     0.859620000000     0.100822   
H201     H      0.115780000000     0.984770000000     0.919270000000     0.0388238  
H202     H      0.126660000000     0.976700000000     0.878230000000     0.0447242  
H203     H      0.115780000000     0.545230000000     0.914860000000     0.0450798  
H204     H      0.106630000000     0.546060000000     0.872650000000     0.0431176  
H205     H      0.184720000000     0.523860000000     0.705680000000     0.0996579  
H206     H      0.139430000000     0.049090000000     0.595020000000     0.10483    
H207     H      0.195700000000     0.007520000000     0.649390000000     0.045597   
H208     H      0.152780000000     0.998520000000     0.642090000000     0.0486468  
H209     H      0.186250000000     0.568460000000     0.647100000000     0.0388459  
H210     H      0.142050000000     0.562670000000     0.649720000000     0.041694   
H211     H      0.377250000000     0.537200000000     0.645240000000     0.106507   
H212     H      0.484190000000     0.997650000000     0.593780000000     0.100991   
H213     H      0.424260000000     0.047150000000     0.594890000000     0.0406958  
H214     H      0.433210000000     0.542150000000     0.634980000000     0.0417025  
H215     H      0.427630000000     0.992310000000     0.581080000000     0.0459883  
H216     H      0.421480000000     0.480520000000     0.615800000000     0.04741    
H217     H      0.011160000000     0.168500000000     0.872420000000     0.100213   
H218     H      0.475570000000     0.066300000000     0.880960000000     0.100945   
H219     H      0.515190000000     0.110210000000     0.910200000000     0.0428171  
H220     H      0.472100000000     0.120430000000     0.909170000000     0.0410111  
H221     H      0.014970000000     0.117590000000     0.846750000000     0.0457761  
H222     H      0.971490000000     0.125430000000     0.849000000000     0.0380022  
H223     H      0.483250000000     0.358280000000     0.828450000000     0.098946   
H224     H      0.032610000000     0.392130000000     0.924150000000     0.100894   
H225     H      0.995480000000     0.409930000000     0.876760000000     0.0489394  
H226     H      0.469400000000     0.368870000000     0.884490000000     0.0374157  
H227     H      0.049340000000     0.381650000000     0.868550000000     0.0364463  
H228     H      0.524220000000     0.343250000000     0.872250000000     0.0436429  
H229     H      0.597780000000     0.407830000000     0.631830000000     0.101532   
H230     H      0.072260000000     0.393110000000     0.603610000000     0.10595    
H231     H      0.128800000000     0.370930000000     0.641540000000     0.0305127  
H232     H      0.111940000000     0.373480000000     0.681550000000     0.038373   
H233     H      0.535860000000     0.359040000000     0.673130000000     0.0532562  
H234     H      0.554320000000     0.323450000000     0.657500000000     0.0414145  
H235     H      0.476660000000     0.160690000000     0.632340000000     0.0972174  
H236     H      0.052980000000     0.090400000000     0.625260000000     0.101103   
H237     H      0.991020000000     0.120390000000     0.603820000000     0.0402754  
H238     H      0.032500000000     0.132970000000     0.594400000000     0.0439864  
H239     H      0.504340000000     0.120720000000     0.665110000000     0.0412158  
H240     H      0.540540000000     0.139610000000     0.648470000000     0.0377612  
H241     H      0.452720000000     0.534730000000     0.295430000000     0.203458   
H242     H      0.066960000000     0.544670000000     0.215930000000     0.203266   
H243     H      0.048050000000     0.942690000000     0.305920000000     0.207704   
H244     H      0.466940000000     0.942830000000     0.201750000000     0.198998   
H245     H      0.068100000000     0.597270000000     0.264720000000     0.127167   
H246     H      0.121140000000     0.553110000000     0.268000000000     0.185614   
H247     H      0.108370000000     0.936420000000     0.250300000000     0.148355   
H248     H      0.050470000000     0.882880000000     0.280230000000     0.198776   
H249     H      0.455140000000     0.885730000000     0.236310000000     0.129506   
H250     H      0.399350000000     0.944620000000     0.212270000000     0.193047   
H251     H      0.387280000000     0.521840000000     0.246370000000     0.137606   
H252     H      0.441160000000     0.581900000000     0.245560000000     0.193451   
H253     H      0.061080000000     0.887230000000     0.241780000000     0.202981   
H254     H      0.400230000000     0.929440000000     0.249360000000     0.196674   
H255     H      0.462500000000     0.611440000000     0.263070000000     0.202283   
H256     H      0.144030000000     0.521960000000     0.280030000000     0.204756   
H257     H      0.056530000000     0.797030000000     0.061310000000     0.20803    
H258     H      0.446560000000     0.713880000000     0.039150000000     0.205094   
H259     H      0.488090000000     0.818990000000     0.461360000000     0.212926   
H260     H      0.071260000000     0.713340000000     0.452650000000     0.201253   
H261     H      0.432320000000     0.763700000000     0.092650000000     0.127815   
H262     H      0.389430000000     0.760640000000     0.034180000000     0.185186   
H263     H      0.404220000000     0.796020000000     0.461150000000     0.141655   
H264     H      0.473620000000     0.772560000000     0.402840000000     0.210171   
H265     H      0.094910000000     0.753800000000     0.404460000000     0.124704   
H266     H      0.144290000000     0.747120000000     0.448690000000     0.188205   
H267     H      0.098810000000     0.722360000000     0.076500000000     0.147171   
H268     H      0.041100000000     0.773070000000     0.120100000000     0.198173   
H269     H      0.504880000000     0.790240000000     0.383460000000     0.205433   
H270     H      0.163480000000     0.728960000000     0.479200000000     0.203666   
H271     H      0.042610000000     0.733350000000     0.115080000000     0.203738   
H272     H      0.376220000000     0.779970000000     0.001490000000     0.195327   
H273     H      0.235460000000     0.562010000000     0.030330000000     0.207958   
H274     H      0.299790000000     0.944840000000     0.040330000000     0.203518   
H275     H      0.226710000000     0.956170000000     0.481040000000     0.20685    
H276     H      0.340960000000     0.538900000000     0.463080000000     0.200329   
H277     H      0.254190000000     0.954270000000     0.095310000000     0.126295   
H278     H      0.239780000000     0.900600000000     0.054170000000     0.184434   
H279     H      0.282610000000     0.898080000000     0.496320000000     0.147726   
H280     H      0.254440000000     0.929520000000     0.429060000000     0.197715   
H281     H      0.308820000000     0.535670000000     0.404100000000     0.123545   
H282     H      0.306170000000     0.597280000000     0.432910000000     0.185222   
H283     H      0.317130000000     0.592620000000     0.030200000000     0.146361   
H284     H      0.260050000000     0.557560000000     0.093020000000     0.198951   
H285     H      0.294650000000     0.922200000000     0.434920000000     0.201447   
H286     H      0.311580000000     0.629260000000     0.456500000000     0.202383   
H287     H      0.300470000000     0.555100000000     0.084860000000     0.202645   
H288     H      0.221900000000     0.878240000000     0.025770000000     0.203502   
H289     H      0.355070000000     0.875860000000     0.565220000000     0.0955561  
H290     H      0.441470000000     0.896030000000     0.976520000000     0.104226   
H291     H      0.385080000000     0.893760000000     0.018350000000     0.0474098  
H292     H      0.382900000000     0.850570000000     0.016600000000     0.0375563  
H293     H      0.398660000000     0.910010000000     0.502070000000     0.0461709  
H294     H      0.394620000000     0.867460000000     0.509090000000     0.0412416  
H295     H      0.376140000000     0.668360000000     0.976130000000     0.0949784  
H296     H      0.428530000000     0.581030000000     0.517880000000     0.10186    
H297     H      0.379680000000     0.632020000000     0.469820000000     0.0372322  
H298     H      0.378610000000     0.618770000000     0.004640000000     0.0429332  
H299     H      0.383850000000     0.635920000000     0.530110000000     0.0424812  
H300     H      0.381550000000     0.612120000000     0.943690000000     0.0406149  
H301     H      0.108730000000     0.947480000000     0.990300000000     0.100108   
H302     H      0.184300000000     0.833580000000     0.513910000000     0.10181    
H303     H      0.169530000000     0.891170000000     0.559240000000     0.0434583  
H304     H      0.146610000000     0.886870000000     0.978310000000     0.0496353  
H305     H      0.187970000000     0.887960000000     0.502320000000     0.044224   
H306     H      0.145870000000     0.896290000000     0.039750000000     0.0402862  
H307     H      0.090860000000     0.614900000000     0.016560000000     0.102465   
H308     H      0.201780000000     0.647530000000     0.472700000000     0.0975165  
H309     H      0.150960000000     0.656880000000     0.517550000000     0.0457758  
H310     H      0.147920000000     0.617540000000     0.032210000000     0.0404907  
H311     H      0.145930000000     0.641850000000     0.457990000000     0.0353244  
H312     H      0.138850000000     0.608030000000     0.973240000000     0.0487382  
H313     H      0.369770000000     0.491080000000     0.338330000000     0.103725   
H314     H      0.417650000000     0.958720000000     0.446630000000     0.100707   
H315     H      0.418960000000     0.005370000000     0.393860000000     0.0518095  
H316     H      0.375190000000     0.509900000000     0.391370000000     0.0370258  
H317     H      0.414620000000     0.945560000000     0.391940000000     0.0434078  
H318     H      0.369480000000     0.449890000000     0.392690000000     0.0453986  
H319     H      0.080190000000     0.991750000000     0.400930000000     0.100247   
H320     H      0.190930000000     0.500480000000     0.383950000000     0.0994242  
H321     H      0.138130000000     0.475630000000     0.367660000000     0.0407143  
H322     H      0.137220000000     0.518040000000     0.359160000000     0.0441195  
H323     H      0.134860000000     0.981050000000     0.428020000000     0.0415342  
H324     H      0.136880000000     0.023200000000     0.419570000000     0.0495187  
H325     H      0.152080000000     0.998480000000     0.178140000000     0.094297   
H326     H      0.136440000000     0.531660000000     0.076840000000     0.100738   
H327     H      0.121270000000     0.481120000000     0.120470000000     0.0457638  
H328     H      0.110140000000     0.522520000000     0.127090000000     0.0451788  
H329     H      0.178440000000     0.999100000000     0.123920000000     0.0433422  
H330     H      0.167990000000     0.040230000000     0.132840000000     0.0362708  
H331     H      0.400540000000     0.973130000000     0.071930000000     0.100624   
H332     H      0.402450000000     0.527570000000     0.152060000000     0.098747   
H333     H      0.368560000000     0.512630000000     0.108720000000     0.0412036  
H334     H      0.376270000000     0.981350000000     0.131350000000     0.0389145  
H335     H      0.430330000000     0.516000000000     0.095770000000     0.0424518  
H336     H      0.436130000000     0.989430000000     0.115160000000     0.0372913  
H337     H      0.009550000000     0.685760000000     0.369950000000     0.0998678  
H338     H      0.488820000000     0.575270000000     0.389390000000     0.100577   
H339     H      0.522050000000     0.621820000000     0.412740000000     0.0434762  
H340     H      0.478910000000     0.631640000000     0.411880000000     0.0429718  
H341     H      0.023880000000     0.630690000000     0.349530000000     0.044538   
H342     H      0.980100000000     0.636720000000     0.347000000000     0.0384279  
H343     H      0.490630000000     0.857990000000     0.348890000000     0.0984687  
H344     H      0.064330000000     0.904790000000     0.423360000000     0.102344   
H345     H      0.000150000000     0.914680000000     0.396380000000     0.0481631  
H346     H      0.492130000000     0.865860000000     0.405050000000     0.0360121  
H347     H      0.052630000000     0.904080000000     0.367820000000     0.0339222  
H348     H      0.549040000000     0.855490000000     0.380230000000     0.043832   
H349     H      0.540860000000     0.904190000000     0.127530000000     0.102641   
H350     H      0.992350000000     0.889290000000     0.087810000000     0.102865   
H351     H      0.037770000000     0.853170000000     0.136440000000     0.0336646  
H352     H      0.015570000000     0.858850000000     0.173350000000     0.0442818  
H353     H      0.472390000000     0.874490000000     0.146380000000     0.0354317  
H354     H      0.480560000000     0.832400000000     0.141320000000     0.0470579  
H355     H      0.464450000000     0.662410000000     0.124270000000     0.099545   
H356     H      0.033120000000     0.580990000000     0.123810000000     0.101056   
H357     H      0.975410000000     0.606440000000     0.100560000000     0.0419275  
H358     H      0.014870000000     0.623100000000     0.089220000000     0.0458084  
H359     H      0.480480000000     0.617680000000     0.159190000000     0.0422403  
H360     H      0.519860000000     0.636390000000     0.151950000000     0.040395   
H361     H      0.452120000000     0.534370000000     0.769880000000     0.205799   
H362     H      0.084070000000     0.558460000000     0.724770000000     0.203593   
H363     H      0.061800000000     0.942940000000     0.804790000000     0.207568   
H364     H      0.498640000000     0.937770000000     0.683670000000     0.201627   
H365     H      0.063880000000     0.607000000000     0.774050000000     0.127781   
H366     H      0.113520000000     0.567460000000     0.801720000000     0.188327   
H367     H      0.134240000000     0.948280000000     0.765710000000     0.146052   
H368     H      0.100090000000     0.892280000000     0.751690000000     0.201432   
H369     H      0.480630000000     0.881310000000     0.713300000000     0.124479   
H370     H      0.402320000000     0.949380000000     0.691720000000     0.203958   
H371     H      0.431540000000     0.544860000000     0.700460000000     0.139361   
H372     H      0.463160000000     0.598680000000     0.719970000000     0.199456   
H373     H      0.076900000000     0.883020000000     0.783490000000     0.198152   
H374     H      0.424690000000     0.920240000000     0.708710000000     0.188288   
H375     H      0.457040000000     0.600540000000     0.759510000000     0.19821    
H376     H      0.145990000000     0.543040000000     0.797130000000     0.20375    
H377     H      0.090850000000     0.797400000000     0.557420000000     0.208946   
H378     H      0.454110000000     0.719910000000     0.547570000000     0.203002   
H379     H      0.481770000000     0.805710000000     0.945590000000     0.214668   
H380     H      0.070270000000     0.703080000000     0.962950000000     0.20211    
H381     H      0.447800000000     0.766860000000     0.605840000000     0.126914   
H382     H      0.400580000000     0.769040000000     0.552830000000     0.184798   
H383     H      0.399110000000     0.773560000000     0.940520000000     0.141038   
H384     H      0.475520000000     0.752680000000     0.891490000000     0.210126   
H385     H      0.099520000000     0.746790000000     0.917880000000     0.124355   
H386     H      0.139460000000     0.742460000000     0.971820000000     0.186656   
H387     H      0.121930000000     0.723550000000     0.562820000000     0.147585   
H388     H      0.084920000000     0.763810000000     0.614750000000     0.197913   
H389     H      0.507250000000     0.770030000000     0.872530000000     0.206078   
H390     H      0.154410000000     0.739730000000     0.009080000000     0.20448    
H391     H      0.071620000000     0.726120000000     0.610550000000     0.201945   
H392     H      0.384970000000     0.790900000000     0.522850000000     0.19571    
H393     H      0.239110000000     0.579720000000     0.547860000000     0.205694   
H394     H      0.315440000000     0.972230000000     0.585610000000     0.202716   
H395     H      0.205420000000     0.962610000000     0.940590000000     0.207693   
H396     H      0.323220000000     0.533900000000     0.926870000000     0.202712   
H397     H      0.261490000000     0.990050000000     0.634610000000     0.121296   
H398     H      0.257840000000     0.927500000000     0.607480000000     0.183889   
H399     H      0.255550000000     0.897740000000     0.938130000000     0.147842   
H400     H      0.224960000000     0.950440000000     0.879550000000     0.199232   
H401     H      0.282530000000     0.552590000000     0.875920000000     0.123817   
H402     H      0.289800000000     0.606180000000     0.918550000000     0.186779   
H403     H      0.306250000000     0.618920000000     0.550580000000     0.144529   
H404     H      0.258500000000     0.594360000000     0.608950000000     0.197197   
H405     H      0.262700000000     0.934430000000     0.882950000000     0.202221   
H406     H      0.301940000000     0.628800000000     0.949470000000     0.201771   
H407     H      0.299760000000     0.591650000000     0.609160000000     0.201022   
H408     H      0.248050000000     0.895920000000     0.584690000000     0.202935   
H409     H      0.327530000000     0.852990000000     0.001080000000     0.0964526  
H410     H      0.457370000000     0.907700000000     0.511020000000     0.103086   
H411     H      0.413660000000     0.919310000000     0.559010000000     0.0444044  
H412     H      0.413140000000     0.877010000000     0.566580000000     0.0376943  
H413     H      0.386700000000     0.895400000000     0.958020000000     0.0475435  
H414     H      0.386430000000     0.852050000000     0.957300000000     0.0400566  
H415     H      0.376880000000     0.686980000000     0.480840000000     0.0972793  
H416     H      0.419660000000     0.556480000000     0.969430000000     0.100842   
H417     H      0.423140000000     0.619460000000     0.005480000000     0.0514503  
H418     H      0.423860000000     0.633960000000     0.466970000000     0.0455526  
H419     H      0.425430000000     0.608320000000     0.947630000000     0.0376005  
H420     H      0.428320000000     0.636110000000     0.526870000000     0.0441953  
H421     H      0.128780000000     0.942950000000     0.529430000000     0.104175   
H422     H      0.152380000000     0.841530000000     0.030040000000     0.096959   
H423     H      0.102360000000     0.892280000000     0.979560000000     0.0473797  
H424     H      0.126760000000     0.889500000000     0.546880000000     0.0475515  
H425     H      0.101370000000     0.892840000000     0.037430000000     0.0455738  
H426     H      0.145530000000     0.887900000000     0.489130000000     0.0474509  
H427     H      0.088480000000     0.618350000000     0.503810000000     0.101225   
H428     H      0.199920000000     0.649630000000     0.979630000000     0.0961748  
H429     H      0.149200000000     0.660250000000     0.024910000000     0.0428884  
H430     H      0.143400000000     0.615240000000     0.526310000000     0.0421796  
H431     H      0.142540000000     0.650620000000     0.966810000000     0.0329949  
H432     H      0.145500000000     0.600320000000     0.470200000000     0.0472119  
H433     H      0.360350000000     0.486770000000     0.783420000000     0.102258   
H434     H      0.391000000000     0.945150000000     0.898890000000     0.103319   
H435     H      0.397620000000     0.994190000000     0.854230000000     0.0499963  
H436     H      0.351490000000     0.507450000000     0.836510000000     0.0397037  
H437     H      0.381380000000     0.933480000000     0.844990000000     0.0407284  
H438     H      0.332830000000     0.453610000000     0.838730000000     0.0411418  
H439     H      0.060060000000     0.986870000000     0.904230000000     0.100589   
H440     H      0.161380000000     0.533380000000     0.859410000000     0.100784   
H441     H      0.109650000000     0.489530000000     0.919030000000     0.0383627  
H442     H      0.121520000000     0.481820000000     0.878590000000     0.0446125  
H443     H      0.119330000000     0.040820000000     0.913110000000     0.0454824  
H444     H      0.111550000000     0.039670000000     0.870660000000     0.043966   
H445     H      0.184780000000     0.018310000000     0.703880000000     0.100448   
H446     H      0.139740000000     0.551790000000     0.595140000000     0.104205   
H447     H      0.197330000000     0.511850000000     0.651790000000     0.0468468  
H448     H      0.155410000000     0.501000000000     0.643950000000     0.0534206  
H449     H      0.185900000000     0.064990000000     0.647810000000     0.0408871  
H450     H      0.141930000000     0.059730000000     0.649810000000     0.0413785  
H451     H      0.376410000000     0.037860000000     0.645480000000     0.105078   
H452     H      0.486350000000     0.502160000000     0.590430000000     0.101735   
H453     H      0.422850000000     0.550370000000     0.594120000000     0.0402688  
H454     H      0.432730000000     0.040450000000     0.636550000000     0.0397028  
H455     H      0.430040000000     0.497190000000     0.576860000000     0.0467421  
H456     H      0.418840000000     0.978910000000     0.621230000000     0.0467452  
H457     H      0.032290000000     0.661740000000     0.874400000000     0.0997942  
H458     H      0.470480000000     0.571370000000     0.876490000000     0.0998651  
H459     H      0.520030000000     0.604480000000     0.905060000000     0.0417202  
H460     H      0.480180000000     0.622930000000     0.910240000000     0.0429838  
H461     H      0.011130000000     0.622710000000     0.842430000000     0.0460931  
H462     H      0.969880000000     0.632660000000     0.854720000000     0.0380204  
H463     H      0.484890000000     0.852950000000     0.830120000000     0.0992773  
H464     H      0.050940000000     0.888490000000     0.916910000000     0.1013     
H465     H      0.000900000000     0.901420000000     0.878220000000     0.0494386  
H466     H      0.481330000000     0.860060000000     0.887380000000     0.0371146  
H467     H      0.056230000000     0.880680000000     0.860040000000     0.0318127  
H468     H      0.535810000000     0.840140000000     0.866740000000     0.0418849  
H469     H      0.591790000000     0.902870000000     0.630340000000     0.101409   
H470     H      0.063020000000     0.890260000000     0.603660000000     0.105706   
H471     H      0.121140000000     0.863180000000     0.637760000000     0.0303111  
H472     H      0.106480000000     0.865570000000     0.678580000000     0.0374676  
H473     H      0.528040000000     0.857540000000     0.670980000000     0.0519566  
H474     H      0.543900000000     0.820610000000     0.655680000000     0.0421815  
H475     H      0.469540000000     0.657510000000     0.622390000000     0.0964645  
H476     H      0.054260000000     0.595460000000     0.622880000000     0.100415   
H477     H      0.989530000000     0.616020000000     0.598070000000     0.0396755  
H478     H      0.029310000000     0.632780000000     0.588130000000     0.0432702  
H479     H      0.499070000000     0.621070000000     0.658100000000     0.0402752  
H480     H      0.534360000000     0.642450000000     0.642720000000     0.0374027  
H481     H      0.953150000000     0.047050000000     0.296750000000     0.203101   
H482     H      0.568160000000     0.042300000000     0.222550000000     0.204462   
H483     H      0.558720000000     0.441560000000     0.309160000000     0.207044   
H484     H      0.966330000000     0.444160000000     0.197710000000     0.198253   
H485     H      0.570030000000     0.093110000000     0.272410000000     0.127047   
H486     H      0.624080000000     0.048000000000     0.274300000000     0.186268   
H487     H      0.618960000000     0.439070000000     0.253800000000     0.14786    
H488     H      0.565700000000     0.380290000000     0.288440000000     0.198771   
H489     H      0.953160000000     0.389850000000     0.233020000000     0.128846   
H490     H      0.897280000000     0.446420000000     0.208410000000     0.194421   
H491     H      0.891640000000     0.048490000000     0.249440000000     0.134686   
H492     H      0.947470000000     0.097090000000     0.248160000000     0.193143   
H493     H      0.579080000000     0.385450000000     0.250910000000     0.202617   
H494     H      0.897780000000     0.433580000000     0.246380000000     0.197412   
H495     H      0.972180000000     0.124110000000     0.265560000000     0.202681   
H496     H      0.647160000000     0.015810000000     0.282730000000     0.205361   
H497     H      0.561690000000     0.291050000000     0.063930000000     0.207404   
H498     H      0.948160000000     0.212350000000     0.045150000000     0.206688   
H499     H      0.996430000000     0.329340000000     0.462070000000     0.214158   
H500     H      0.566170000000     0.206980000000     0.465710000000     0.20223    
H501     H      0.941660000000     0.260310000000     0.104850000000     0.129675   
H502     H      0.890230000000     0.259840000000     0.048170000000     0.185552   
H503     H      0.912410000000     0.310560000000     0.474420000000     0.141297   
H504     H      0.969000000000     0.278810000000     0.408730000000     0.211282   
H505     H      0.589940000000     0.251170000000     0.418870000000     0.124485   
H506     H      0.637680000000     0.244960000000     0.465040000000     0.187472   
H507     H      0.605850000000     0.218910000000     0.069560000000     0.147809   
H508     H      0.558680000000     0.259120000000     0.120050000000     0.197642   
H509     H      0.996570000000     0.297820000000     0.385720000000     0.205488   
H510     H      0.657260000000     0.229510000000     0.496780000000     0.203511   
H511     H      0.554190000000     0.219650000000     0.114710000000     0.202088   
H512     H      0.871910000000     0.273010000000     0.014730000000     0.195665   
H513     H      0.733870000000     0.063960000000     0.029930000000     0.207318   
H514     H      0.800700000000     0.441400000000     0.028180000000     0.199566   
H515     H      0.737440000000     0.467000000000     0.476130000000     0.20968    
H516     H      0.842790000000     0.049810000000     0.462200000000     0.202948   
H517     H      0.755770000000     0.447630000000     0.085610000000     0.127017   
H518     H      0.748090000000     0.396420000000     0.042350000000     0.183328   
H519     H      0.799940000000     0.411350000000     0.486270000000     0.147133   
H520     H      0.764980000000     0.450710000000     0.417350000000     0.200393   
H521     H      0.807630000000     0.046340000000     0.405150000000     0.123055   
H522     H      0.800330000000     0.109900000000     0.434900000000     0.18682    
H523     H      0.813330000000     0.095470000000     0.030360000000     0.14603    
H524     H      0.756550000000     0.064060000000     0.092120000000     0.198716   
H525     H      0.804340000000     0.442480000000     0.426400000000     0.203118   
H526     H      0.803000000000     0.141040000000     0.460000000000     0.202652   
H527     H      0.797340000000     0.061680000000     0.085890000000     0.202262   
H528     H      0.722180000000     0.377810000000     0.017240000000     0.204287   
H529     H      0.872920000000     0.389720000000     0.556480000000     0.0937411  
H530     H      0.933750000000     0.396430000000     0.008120000000     0.105722   
H531     H      0.882690000000     0.349490000000     0.959480000000     0.0340895  
H532     H      0.885970000000     0.392660000000     0.957120000000     0.0502031  
H533     H      0.921990000000     0.427420000000     0.497900000000     0.0429135  
H534     H      0.914910000000     0.385280000000     0.504740000000     0.0416367  
H535     H      0.872270000000     0.168700000000     0.986660000000     0.0961709  
H536     H      0.930000000000     0.095790000000     0.502750000000     0.10245    
H537     H      0.921650000000     0.154380000000     0.537220000000     0.0443262  
H538     H      0.876330000000     0.117560000000     0.010630000000     0.0422161  
H539     H      0.928740000000     0.146060000000     0.477250000000     0.0463102  
H540     H      0.881200000000     0.113690000000     0.949280000000     0.0420046  
H541     H      0.607250000000     0.446430000000     0.989240000000     0.100491   
H542     H      0.667740000000     0.335280000000     0.533710000000     0.0986541  
H543     H      0.688670000000     0.388250000000     0.517020000000     0.0441693  
H544     H      0.644730000000     0.386320000000     0.973010000000     0.0496344  
H545     H      0.625150000000     0.387300000000     0.511760000000     0.0494646  
H546     H      0.645650000000     0.392930000000     0.034590000000     0.0401088  
H547     H      0.588980000000     0.112340000000     0.009120000000     0.103055   
H548     H      0.696460000000     0.148620000000     0.477350000000     0.0970231  
H549     H      0.648430000000     0.154710000000     0.525020000000     0.04545    
H550     H      0.645950000000     0.115580000000     0.025330000000     0.040884   
H551     H      0.640290000000     0.139350000000     0.465750000000     0.0353033  
H552     H      0.637700000000     0.104790000000     0.966680000000     0.0484798  
H553     H      0.865440000000     0.007020000000     0.338240000000     0.106383   
H554     H      0.925860000000     0.483090000000     0.440740000000     0.101984   
H555     H      0.914910000000     0.524750000000     0.383030000000     0.0444889  
H556     H      0.871150000000     0.020910000000     0.392010000000     0.0390319  
H557     H      0.920580000000     0.464940000000     0.387970000000     0.0473912  
H558     H      0.875910000000     0.960670000000     0.392710000000     0.0457981  
H559     H      0.586350000000     0.496160000000     0.401440000000     0.100762   
H560     H      0.694870000000     0.000130000000     0.387050000000     0.100566   
H561     H      0.643820000000     0.973810000000     0.369740000000     0.0422556  
H562     H      0.639510000000     0.015940000000     0.363150000000     0.0494136  
H563     H      0.642520000000     0.490160000000     0.428170000000     0.042516   
H564     H      0.639890000000     0.532340000000     0.420220000000     0.0447415  
H565     H      0.656190000000     0.500170000000     0.178380000000     0.0978954  
H566     H      0.634500000000     0.031350000000     0.078130000000     0.101027   
H567     H      0.619170000000     0.983580000000     0.122950000000     0.0420082  
H568     H      0.608750000000     0.024540000000     0.130770000000     0.0442201  
H569     H      0.681120000000     0.493410000000     0.121360000000     0.0471602  
H570     H      0.673750000000     0.534700000000     0.131120000000     0.0368641  
H571     H      0.902690000000     0.470720000000     0.058800000000     0.100528   
H572     H      0.902410000000     0.048350000000     0.150350000000     0.099013   
H573     H      0.864860000000     0.021780000000     0.112710000000     0.0410928  
H574     H      0.877530000000     0.473300000000     0.119150000000     0.0374232  
H575     H      0.922260000000     0.035350000000     0.094020000000     0.0412687  
H576     H      0.937350000000     0.481860000000     0.108070000000     0.042227   
H577     H      0.507420000000     0.177100000000     0.380970000000     0.100435   
H578     H      0.992870000000     0.079050000000     0.392940000000     0.101353   
H579     H      0.017730000000     0.129600000000     0.419780000000     0.0431065  
H580     H      0.974040000000     0.134420000000     0.413790000000     0.0399709  
H581     H      0.524150000000     0.123450000000     0.360280000000     0.0452448  
H582     H      0.479770000000     0.127640000000     0.357120000000     0.0383346  
H583     H      0.981740000000     0.366410000000     0.347990000000     0.0982339  
H584     H      0.558280000000     0.396290000000     0.438620000000     0.102675   
H585     H      0.503220000000     0.410900000000     0.399900000000     0.0480821  
H586     H      0.992040000000     0.374340000000     0.403410000000     0.035893   
H587     H      0.558270000000     0.394020000000     0.381670000000     0.0347216  
H588     H      0.042980000000     0.358550000000     0.371310000000     0.0423949  
H589     H      0.049820000000     0.403140000000     0.128930000000     0.1028     
H590     H      0.503830000000     0.379450000000     0.106570000000     0.104586   
H591     H      0.562450000000     0.345010000000     0.141000000000     0.0320397  
H592     H      0.549360000000     0.350230000000     0.181990000000     0.041882   
H593     H      0.983310000000     0.366100000000     0.156700000000     0.0400071  
H594     H      0.996930000000     0.326010000000     0.149630000000     0.0480573  
H595     H      0.961910000000     0.157350000000     0.120890000000     0.0984243  
H596     H      0.542890000000     0.082800000000     0.135120000000     0.100007   
H597     H      0.482480000000     0.098480000000     0.107470000000     0.0433674  
H598     H      0.520280000000     0.118640000000     0.096400000000     0.0431426  
H599     H      0.990930000000     0.127600000000     0.162270000000     0.0431151  
H600     H      0.027160000000     0.147540000000     0.146670000000     0.0389908  
H601     H      0.955520000000     0.030520000000     0.772310000000     0.205645   
H602     H      0.584190000000     0.043410000000     0.726730000000     0.20394    
H603     H      0.553370000000     0.443190000000     0.807090000000     0.208028   
H604     H      0.007980000000     0.448080000000     0.676760000000     0.202229   
H605     H      0.570020000000     0.093210000000     0.776040000000     0.127436   
H606     H      0.619540000000     0.050490000000     0.801490000000     0.188156   
H607     H      0.627140000000     0.444120000000     0.768540000000     0.146743   
H608     H      0.590500000000     0.389480000000     0.754950000000     0.202362   
H609     H      0.988940000000     0.392690000000     0.705970000000     0.126568   
H610     H      0.916210000000     0.450630000000     0.676650000000     0.20406    
H611     H      0.931670000000     0.041390000000     0.703280000000     0.139412   
H612     H      0.962510000000     0.095740000000     0.722430000000     0.199185   
H613     H      0.567140000000     0.382060000000     0.787110000000     0.199252   
H614     H      0.930950000000     0.425370000000     0.704300000000     0.191078   
H615     H      0.956310000000     0.096710000000     0.762000000000     0.19785    
H616     H      0.648940000000     0.022570000000     0.797520000000     0.204263   
H617     H      0.576430000000     0.291270000000     0.571720000000     0.210499   
H618     H      0.970810000000     0.237030000000     0.557440000000     0.205105   
H619     H      0.972310000000     0.309000000000     0.953860000000     0.211767   
H620     H      0.560600000000     0.203580000000     0.959370000000     0.201467   
H621     H      0.977980000000     0.286550000000     0.613770000000     0.1273     
H622     H      0.922490000000     0.291390000000     0.568050000000     0.184664   
H623     H      0.894270000000     0.283090000000     0.953740000000     0.138656   
H624     H      0.960780000000     0.255880000000     0.897620000000     0.21133    
H625     H      0.581640000000     0.250480000000     0.912430000000     0.124527   
H626     H      0.629050000000     0.242720000000     0.959500000000     0.185967   
H627     H      0.612010000000     0.217530000000     0.577020000000     0.14774    
H628     H      0.569630000000     0.258060000000     0.629780000000     0.198993   
H629     H      0.988090000000     0.278880000000     0.878240000000     0.205374   
H630     H      0.649940000000     0.236690000000     0.993560000000     0.201807   
H631     H      0.560550000000     0.219450000000     0.623780000000     0.202417   
H632     H      0.903350000000     0.311800000000     0.538980000000     0.195296   
H633     H      0.740500000000     0.083030000000     0.550210000000     0.207205   
H634     H      0.826060000000     0.479250000000     0.581430000000     0.204738   
H635     H      0.701460000000     0.465030000000     0.934370000000     0.205479   
H636     H      0.824080000000     0.031260000000     0.929790000000     0.202868   
H637     H      0.769400000000     0.487600000000     0.631650000000     0.127297   
H638     H      0.771730000000     0.426780000000     0.597870000000     0.185083   
H639     H      0.742450000000     0.405340000000     0.923070000000     0.145561   
H640     H      0.718020000000     0.455890000000     0.872940000000     0.198379   
H641     H      0.783930000000     0.045270000000     0.876260000000     0.124211   
H642     H      0.790680000000     0.101410000000     0.916260000000     0.18665    
H643     H      0.814690000000     0.127910000000     0.547950000000     0.145499   
H644     H      0.759650000000     0.098680000000     0.610880000000     0.198079   
H645     H      0.757030000000     0.443210000000     0.869160000000     0.202913   
H646     H      0.801220000000     0.126410000000     0.945880000000     0.202298   
H647     H      0.800780000000     0.100710000000     0.607000000000     0.202508   
H648     H      0.766310000000     0.397240000000     0.571290000000     0.202467   
H649     H      0.825420000000     0.353050000000     0.968530000000     0.0958476  
H650     H      0.979390000000     0.421980000000     0.511020000000     0.102467   
H651     H      0.927540000000     0.438700000000     0.554640000000     0.0437836  
H652     H      0.930110000000     0.396930000000     0.564320000000     0.0373975  
H653     H      0.876550000000     0.352050000000     0.018290000000     0.0395625  
H654     H      0.876660000000     0.395330000000     0.017070000000     0.0407433  
H655     H      0.880750000000     0.206940000000     0.510240000000     0.0971519  
H656     H      0.919470000000     0.057930000000     0.974950000000     0.101746   
H657     H      0.920800000000     0.119830000000     0.012370000000     0.050756   
H658     H      0.877830000000     0.155170000000     0.531380000000     0.0352571  
H659     H      0.924990000000     0.110500000000     0.954520000000     0.0398001  
H660     H      0.884210000000     0.144350000000     0.473390000000     0.042384   
H661     H      0.642520000000     0.441220000000     0.526540000000     0.102252   
H662     H      0.651580000000     0.338880000000     0.019360000000     0.0973889  
H663     H      0.600550000000     0.391760000000     0.975530000000     0.0445979  
H664     H      0.682960000000     0.393770000000     0.559260000000     0.0407165  
H665     H      0.601060000000     0.390180000000     0.033500000000     0.0473492  
H666     H      0.623240000000     0.386000000000     0.554630000000     0.04477    
H667     H      0.587610000000     0.112850000000     0.513640000000     0.101425   
H668     H      0.697900000000     0.147410000000     0.971290000000     0.0966319  
H669     H      0.647080000000     0.158120000000     0.017340000000     0.0429844  
H670     H      0.643830000000     0.112710000000     0.534020000000     0.0420228  
H671     H      0.640600000000     0.147310000000     0.959280000000     0.0340417  
H672     H      0.643390000000     0.097900000000     0.477890000000     0.0474995  
H673     H      0.866970000000     0.975760000000     0.788010000000     0.100557   
H674     H      0.884060000000     0.448540000000     0.884870000000     0.104792   
H675     H      0.896920000000     0.494520000000     0.844610000000     0.0515222  
H676     H      0.862850000000     0.003730000000     0.839970000000     0.0431924  
H677     H      0.868900000000     0.437430000000     0.831150000000     0.0395715  
H678     H      0.836610000000     0.952520000000     0.844330000000     0.04281    
H679     H      0.552570000000     0.491690000000     0.904790000000     0.101186   
H680     H      0.663550000000     0.024310000000     0.860020000000     0.100449   
H681     H      0.613430000000     0.982080000000     0.921130000000     0.0390092  
H682     H      0.624020000000     0.973360000000     0.880150000000     0.0452745  
H683     H      0.613260000000     0.543640000000     0.914730000000     0.0447849  
H684     H      0.603350000000     0.543160000000     0.872660000000     0.042063   
H685     H      0.681630000000     0.509950000000     0.705900000000     0.0987061  
H686     H      0.644220000000     0.043120000000     0.598930000000     0.104087   
H687     H      0.690690000000     0.993460000000     0.649620000000     0.0355708  
H688     H      0.646860000000     0.993040000000     0.641720000000     0.0480005  
H689     H      0.692040000000     0.554390000000     0.652330000000     0.042398   
H690     H      0.647320000000     0.555560000000     0.652970000000     0.0392763  
H691     H      0.883600000000     0.544850000000     0.645840000000     0.107799   
H692     H      0.989750000000     0.006630000000     0.591560000000     0.103454   
H693     H      0.930660000000     0.057210000000     0.596830000000     0.0411933  
H694     H      0.939640000000     0.550500000000     0.635640000000     0.0417634  
H695     H      0.933190000000     0.003600000000     0.578550000000     0.0466773  
H696     H      0.927260000000     0.490340000000     0.611630000000     0.0465392  
H697     H      0.509370000000     0.168250000000     0.873980000000     0.10032    
H698     H      0.975880000000     0.066640000000     0.879740000000     0.101046   
H699     H      0.015780000000     0.110430000000     0.907850000000     0.0425996  
H700     H      0.972940000000     0.121680000000     0.908990000000     0.0416336  
H701     H      0.518030000000     0.115410000000     0.849800000000     0.045474   
H702     H      0.474410000000     0.124520000000     0.848710000000     0.0379009  
H703     H      0.994490000000     0.360700000000     0.822590000000     0.099175   
H704     H      0.529860000000     0.391460000000     0.927010000000     0.101136   
H705     H      0.488170000000     0.408160000000     0.881670000000     0.0489318  
H706     H      0.974750000000     0.371520000000     0.877800000000     0.037888   
H707     H      0.542610000000     0.382600000000     0.870510000000     0.0340071  
H708     H      0.028730000000     0.343340000000     0.869660000000     0.0443054  
H709     H      0.114870000000     0.424730000000     0.632300000000     0.10106    
H710     H      0.538910000000     0.382830000000     0.616660000000     0.105943   
H711     H      0.604350000000     0.352750000000     0.640690000000     0.030484   
H712     H      0.596390000000     0.359050000000     0.682760000000     0.0360283  
H713     H      0.054640000000     0.368170000000     0.659890000000     0.0512148  
H714     H      0.080660000000     0.335450000000     0.647890000000     0.0399433  
H715     H      0.991490000000     0.178820000000     0.632590000000     0.098006   
H716     H      0.554540000000     0.082640000000     0.626450000000     0.101271   
H717     H      0.487090000000     0.103220000000     0.610430000000     0.0400252  
H718     H      0.524030000000     0.120320000000     0.593040000000     0.0460803  
H719     H      0.000190000000     0.125900000000     0.661700000000     0.0397161  
H720     H      0.038890000000     0.146060000000     0.655450000000     0.0400662  
H721     H      0.951460000000     0.542980000000     0.291660000000     0.203468   
H722     H      0.566920000000     0.542800000000     0.218150000000     0.203374   
H723     H      0.554900000000     0.938340000000     0.309190000000     0.207572   
H724     H      0.961360000000     0.952710000000     0.198070000000     0.199414   
H725     H      0.565500000000     0.595540000000     0.266870000000     0.12697    
H726     H      0.621140000000     0.554090000000     0.269880000000     0.185514   
H727     H      0.615690000000     0.935640000000     0.252700000000     0.148223   
H728     H      0.561010000000     0.878750000000     0.283480000000     0.199149   
H729     H      0.944900000000     0.896940000000     0.233010000000     0.129007   
H730     H      0.892330000000     0.959180000000     0.208910000000     0.193867   
H731     H      0.888810000000     0.536850000000     0.242680000000     0.135965   
H732     H      0.943290000000     0.590840000000     0.242300000000     0.192492   
H733     H      0.571490000000     0.884170000000     0.245130000000     0.20319    
H734     H      0.892790000000     0.943540000000     0.245820000000     0.196354   
H735     H      0.966720000000     0.619480000000     0.258760000000     0.202299   
H736     H      0.646230000000     0.524030000000     0.280510000000     0.204391   
H737     H      0.556970000000     0.794500000000     0.063840000000     0.208228   
H738     H      0.946710000000     0.715890000000     0.035990000000     0.204701   
H739     H      0.997580000000     0.829540000000     0.456410000000     0.213741   
H740     H      0.569380000000     0.707920000000     0.462620000000     0.201849   
H741     H      0.931420000000     0.766070000000     0.088690000000     0.127859   
H742     H      0.889460000000     0.762320000000     0.029390000000     0.184635   
H743     H      0.912570000000     0.811340000000     0.464610000000     0.142166   
H744     H      0.973960000000     0.782340000000     0.400660000000     0.20972    
H745     H      0.595730000000     0.752100000000     0.418510000000     0.124671   
H746     H      0.640800000000     0.748620000000     0.467170000000     0.188886   
H747     H      0.599320000000     0.720020000000     0.077640000000     0.147029   
H748     H      0.542740000000     0.769220000000     0.122410000000     0.198628   
H749     H      0.004270000000     0.795870000000     0.376990000000     0.205439   
H750     H      0.657280000000     0.728640000000     0.498030000000     0.203794   
H751     H      0.543560000000     0.729550000000     0.116910000000     0.203796   
H752     H      0.876770000000     0.781140000000     0.996220000000     0.192395   
H753     H      0.734640000000     0.561580000000     0.028970000000     0.207892   
H754     H      0.800740000000     0.945040000000     0.038900000000     0.203373   
H755     H      0.736520000000     0.963190000000     0.480020000000     0.208816   
H756     H      0.844420000000     0.554570000000     0.463730000000     0.19965    
H757     H      0.756130000000     0.954040000000     0.094490000000     0.12633    
H758     H      0.741680000000     0.900180000000     0.053890000000     0.184364   
H759     H      0.797790000000     0.908660000000     0.491200000000     0.147105   
H760     H      0.763820000000     0.942890000000     0.424170000000     0.199026   
H761     H      0.811650000000     0.553110000000     0.406210000000     0.122676   
H762     H      0.803200000000     0.612510000000     0.437450000000     0.186141   
H763     H      0.816140000000     0.592890000000     0.027940000000     0.146659   
H764     H      0.759930000000     0.557050000000     0.091340000000     0.19915    
H765     H      0.804150000000     0.936740000000     0.430470000000     0.202748   
H766     H      0.809390000000     0.642820000000     0.462980000000     0.202365   
H767     H      0.800270000000     0.555000000000     0.082700000000     0.202783   
H768     H      0.723630000000     0.877450000000     0.025890000000     0.203568   
H769     H      0.873400000000     0.889140000000     0.558700000000     0.0944056  
H770     H      0.941970000000     0.897250000000     0.971730000000     0.104202   
H771     H      0.886500000000     0.894600000000     0.014960000000     0.0475746  
H772     H      0.884720000000     0.851400000000     0.013130000000     0.0384665  
H773     H      0.919240000000     0.926170000000     0.497320000000     0.0437418  
H774     H      0.912610000000     0.884080000000     0.504780000000     0.0422176  
H775     H      0.877470000000     0.669410000000     0.972220000000     0.0949922  
H776     H      0.929740000000     0.599780000000     0.519660000000     0.102686   
H777     H      0.878570000000     0.651710000000     0.473320000000     0.0357631  
H778     H      0.880810000000     0.620250000000     0.002580000000     0.0427056  
H779     H      0.881380000000     0.652050000000     0.532430000000     0.0416272  
H780     H      0.878500000000     0.613560000000     0.941760000000     0.0407006  
H781     H      0.608830000000     0.945210000000     0.992070000000     0.100212   
H782     H      0.665520000000     0.834720000000     0.541040000000     0.0989672  
H783     H      0.688030000000     0.886990000000     0.525680000000     0.0449845  
H784     H      0.647460000000     0.884910000000     0.979980000000     0.0496215  
H785     H      0.624060000000     0.887630000000     0.517960000000     0.0498769  
H786     H      0.646200000000     0.894100000000     0.041250000000     0.0400916  
H787     H      0.589880000000     0.612850000000     0.017430000000     0.102559   
H788     H      0.697900000000     0.652150000000     0.480890000000     0.0975523  
H789     H      0.647410000000     0.654400000000     0.527450000000     0.0456953  
H790     H      0.647220000000     0.614860000000     0.031500000000     0.0406888  
H791     H      0.642410000000     0.643520000000     0.466870000000     0.0347988  
H792     H      0.637170000000     0.607480000000     0.972450000000     0.0483789  
H793     H      0.865920000000     0.503720000000     0.334480000000     0.104409   
H794     H      0.924980000000     0.978340000000     0.442610000000     0.101198   
H795     H      0.914950000000     0.024250000000     0.387760000000     0.0436517  
H796     H      0.870710000000     0.521220000000     0.387260000000     0.0417317  
H797     H      0.920300000000     0.964020000000     0.388560000000     0.0483147  
H798     H      0.876670000000     0.461300000000     0.392780000000     0.0440505  
H799     H      0.585340000000     0.990850000000     0.403480000000     0.0998006  
H800     H      0.695790000000     0.508250000000     0.384980000000     0.0989178  
H801     H      0.645010000000     0.479740000000     0.368110000000     0.0411426  
H802     H      0.640240000000     0.522180000000     0.361350000000     0.0438821  
H803     H      0.641470000000     0.983800000000     0.430090000000     0.0366225  
H804     H      0.639350000000     0.026060000000     0.422380000000     0.0435291  
H805     H      0.654280000000     0.999270000000     0.179810000000     0.096526   
H806     H      0.636390000000     0.529800000000     0.076690000000     0.100682   
H807     H      0.620590000000     0.482180000000     0.122050000000     0.0466661  
H808     H      0.611790000000     0.524140000000     0.128440000000     0.044064   
H809     H      0.679410000000     0.996900000000     0.124320000000     0.0435941  
H810     H      0.669950000000     0.038260000000     0.133160000000     0.036793   
H811     H      0.901740000000     0.976030000000     0.069400000000     0.100799   
H812     H      0.902190000000     0.533990000000     0.145640000000     0.0990425  
H813     H      0.867390000000     0.513000000000     0.105780000000     0.0418646  
H814     H      0.880150000000     0.984620000000     0.128900000000     0.0309225  
H815     H      0.928350000000     0.520300000000     0.090170000000     0.0422705  
H816     H      0.937820000000     0.998060000000     0.110160000000     0.0402553  
H817     H      0.515300000000     0.678510000000     0.374210000000     0.100393   
H818     H      0.989250000000     0.581580000000     0.386470000000     0.10073    
H819     H      0.019100000000     0.629930000000     0.410820000000     0.0435821  
H820     H      0.975790000000     0.638370000000     0.407130000000     0.041796   
H821     H      0.523030000000     0.624710000000     0.351580000000     0.0450818  
H822     H      0.478740000000     0.630860000000     0.352100000000     0.0382962  
H823     H      0.982310000000     0.865820000000     0.345840000000     0.0985838  
H824     H      0.558060000000     0.898330000000     0.437650000000     0.102826   
H825     H      0.499460000000     0.908350000000     0.400300000000     0.0478788  
H826     H      0.993030000000     0.872160000000     0.401220000000     0.0363007  
H827     H      0.555910000000     0.898310000000     0.380930000000     0.0360184  
H828     H      0.045210000000     0.861370000000     0.368780000000     0.0425132  
H829     H      0.034360000000     0.910340000000     0.124400000000     0.10231    
H830     H      0.494030000000     0.886140000000     0.093460000000     0.102938   
H831     H      0.542390000000     0.846840000000     0.137730000000     0.0332759  
H832     H      0.523200000000     0.852270000000     0.176240000000     0.0443898  
H833     H      0.966230000000     0.878410000000     0.139290000000     0.0367134  
H834     H      0.976120000000     0.836840000000     0.136270000000     0.0472138  
H835     H      0.964210000000     0.664990000000     0.121980000000     0.0995144  
H836     H      0.530470000000     0.576900000000     0.126360000000     0.10115    
H837     H      0.475960000000     0.603880000000     0.100550000000     0.0418661  
H838     H      0.515990000000     0.621170000000     0.092820000000     0.0450216  
H839     H      0.984410000000     0.623020000000     0.157900000000     0.043024   
H840     H      0.023420000000     0.640730000000     0.146910000000     0.0398859  
H841     H      0.953310000000     0.536210000000     0.767490000000     0.204469   
H842     H      0.583220000000     0.548610000000     0.724920000000     0.203429   
H843     H      0.555320000000     0.937340000000     0.808250000000     0.208392   
H844     H      0.006690000000     0.942780000000     0.679480000000     0.200493   
H845     H      0.566930000000     0.598930000000     0.773270000000     0.12772    
H846     H      0.615460000000     0.557020000000     0.801600000000     0.188822   
H847     H      0.628970000000     0.938650000000     0.767200000000     0.146888   
H848     H      0.590480000000     0.884500000000     0.754440000000     0.202452   
H849     H      0.993690000000     0.885330000000     0.704890000000     0.124948   
H850     H      0.911300000000     0.947300000000     0.685460000000     0.203596   
H851     H      0.930880000000     0.546650000000     0.700550000000     0.137297   
H852     H      0.960920000000     0.601670000000     0.719080000000     0.198838   
H853     H      0.568120000000     0.877060000000     0.787280000000     0.198332   
H854     H      0.933880000000     0.919740000000     0.704670000000     0.189301   
H855     H      0.954660000000     0.603010000000     0.758620000000     0.1979     
H856     H      0.646140000000     0.530730000000     0.795950000000     0.203721   
H857     H      0.572160000000     0.790160000000     0.570680000000     0.209893   
H858     H      0.965980000000     0.734690000000     0.547200000000     0.203019   
H859     H      0.983340000000     0.806640000000     0.941760000000     0.214004   
H860     H      0.568950000000     0.701810000000     0.964220000000     0.201958   
H861     H      0.969970000000     0.783670000000     0.605480000000     0.127488   
H862     H      0.917400000000     0.786440000000     0.556820000000     0.1841     
H863     H      0.900890000000     0.774490000000     0.935800000000     0.141127   
H864     H      0.978030000000     0.752750000000     0.888190000000     0.210473   
H865     H      0.597450000000     0.745790000000     0.919220000000     0.12438    
H866     H      0.638180000000     0.740610000000     0.972330000000     0.186645   
H867     H      0.607620000000     0.717480000000     0.577100000000     0.147498   
H868     H      0.561800000000     0.755900000000     0.627690000000     0.198564   
H869     H      0.009670000000     0.770870000000     0.869810000000     0.206032   
H870     H      0.653810000000     0.737530000000     0.009300000000     0.20478    
H871     H      0.553220000000     0.717370000000     0.620610000000     0.202212   
H872     H      0.900250000000     0.809260000000     0.528380000000     0.195361   
H873     H      0.741000000000     0.583290000000     0.551990000000     0.205531   
H874     H      0.826070000000     0.980370000000     0.583680000000     0.203575   
H875     H      0.704460000000     0.961310000000     0.940660000000     0.207716   
H876     H      0.821330000000     0.534570000000     0.924360000000     0.202882   
H877     H      0.771390000000     0.992050000000     0.634910000000     0.122943   
H878     H      0.772860000000     0.929630000000     0.603620000000     0.184319   
H879     H      0.755190000000     0.896990000000     0.937590000000     0.148107   
H880     H      0.723410000000     0.948790000000     0.879460000000     0.19926    
H881     H      0.778700000000     0.553640000000     0.874130000000     0.124056   
H882     H      0.787720000000     0.606530000000     0.916780000000     0.186507   
H883     H      0.806190000000     0.627250000000     0.555910000000     0.144715   
H884     H      0.759420000000     0.596140000000     0.613140000000     0.196929   
H885     H      0.761490000000     0.933460000000     0.882380000000     0.202243   
H886     H      0.799400000000     0.629280000000     0.947780000000     0.201653   
H887     H      0.800780000000     0.596940000000     0.612720000000     0.200734   
H888     H      0.766830000000     0.898590000000     0.578940000000     0.202696   
H889     H      0.828970000000     0.853280000000     0.998930000000     0.0938381  
H890     H      0.977420000000     0.920980000000     0.509110000000     0.102057   
H891     H      0.928190000000     0.937730000000     0.553690000000     0.0433402  
H892     H      0.931030000000     0.895990000000     0.563380000000     0.0374495  
H893     H      0.886700000000     0.896530000000     0.954650000000     0.047396   
H894     H      0.886630000000     0.853180000000     0.953690000000     0.0401586  
H895     H      0.880350000000     0.706560000000     0.486290000000     0.0969797  
H896     H      0.918180000000     0.557710000000     0.965780000000     0.10056    
H897     H      0.925290000000     0.619970000000     0.000100000000     0.0523201  
H898     H      0.922760000000     0.650290000000     0.470150000000     0.047266   
H899     H      0.922450000000     0.609100000000     0.942110000000     0.0365975  
H900     H      0.925930000000     0.654260000000     0.531240000000     0.0425893  
H901     H      0.641790000000     0.940770000000     0.533010000000     0.101918   
H902     H      0.652510000000     0.839310000000     0.030990000000     0.097137   
H903     H      0.603170000000     0.889990000000     0.980780000000     0.0472374  
H904     H      0.680140000000     0.893750000000     0.567400000000     0.0399635  
H905     H      0.601670000000     0.890940000000     0.038740000000     0.0460199  
H906     H      0.621070000000     0.885270000000     0.560710000000     0.0430342  
H907     H      0.587690000000     0.612970000000     0.511240000000     0.101306   
H908     H      0.698050000000     0.649130000000     0.978410000000     0.0963114  
H909     H      0.648400000000     0.657810000000     0.025770000000     0.042896   
H910     H      0.642910000000     0.611760000000     0.533040000000     0.0424407  
H911     H      0.640470000000     0.650300000000     0.967430000000     0.0328012  
H912     H      0.645460000000     0.601300000000     0.476010000000     0.046866   
H913     H      0.864300000000     0.483590000000     0.779560000000     0.101715   
H914     H      0.889160000000     0.945760000000     0.895680000000     0.102473   
H915     H      0.902460000000     0.988640000000     0.851360000000     0.0516746  
H916     H      0.857420000000     0.509560000000     0.831790000000     0.0381061  
H917     H      0.875720000000     0.931530000000     0.842390000000     0.0397724  
H918     H      0.830880000000     0.459220000000     0.834890000000     0.0422715  
H919     H      0.557480000000     0.984620000000     0.906580000000     0.100593   
H920     H      0.658180000000     0.531750000000     0.858890000000     0.100099   
H921     H      0.608200000000     0.488000000000     0.920500000000     0.0389393  
H922     H      0.619800000000     0.479370000000     0.880170000000     0.0452567  
H923     H      0.616730000000     0.037980000000     0.914080000000     0.045324   
H924     H      0.608260000000     0.036140000000     0.871770000000     0.0431359  
H925     H      0.681510000000     0.005570000000     0.704950000000     0.100123   
H926     H      0.644380000000     0.544340000000     0.597930000000     0.103495   
H927     H      0.692420000000     0.496330000000     0.651190000000     0.0420985  
H928     H      0.649230000000     0.493880000000     0.642570000000     0.0533635  
H929     H      0.692190000000     0.051560000000     0.653690000000     0.0448727  
H930     H      0.647960000000     0.054060000000     0.654410000000     0.0399256  
H931     H      0.882800000000     0.044500000000     0.646750000000     0.106025   
H932     H      0.992440000000     0.513160000000     0.588450000000     0.101919   
H933     H      0.928960000000     0.561670000000     0.595590000000     0.040032   
H934     H      0.939230000000     0.047110000000     0.637760000000     0.0413109  
H935     H      0.936280000000     0.510050000000     0.574240000000     0.0467265  
H936     H      0.924090000000     0.987100000000     0.617460000000     0.0422627  
H937     H      0.530320000000     0.662300000000     0.875460000000     0.099977   
H938     H      0.969800000000     0.572140000000     0.875530000000     0.0998108  
H939     H      0.021030000000     0.604350000000     0.901640000000     0.0416485  
H940     H      0.982220000000     0.623100000000     0.911430000000     0.0441772  
H941     H      0.516890000000     0.618030000000     0.845100000000     0.0453232  
H942     H      0.474860000000     0.631080000000     0.851280000000     0.0383352  
H943     H      0.994250000000     0.854190000000     0.823040000000     0.099317   
H944     H      0.547780000000     0.888000000000     0.920390000000     0.101462   
H945     H      0.495510000000     0.901060000000     0.883790000000     0.0492125  
H946     H      0.986080000000     0.860540000000     0.880290000000     0.0375616  
H947     H      0.549920000000     0.881100000000     0.863210000000     0.0316006  
H948     H      0.041280000000     0.839980000000     0.863390000000     0.0419721  
H949     H      0.110430000000     0.918060000000     0.630710000000     0.100685   
H950     H      0.531270000000     0.880800000000     0.615170000000     0.105453   
H951     H      0.595670000000     0.847220000000     0.637770000000     0.0305414  
H952     H      0.588870000000     0.852710000000     0.680140000000     0.0370143  
H953     H      0.047820000000     0.864810000000     0.659310000000     0.050313   
H954     H      0.070780000000     0.830650000000     0.645860000000     0.0413169  
H955     H      0.979940000000     0.674950000000     0.621550000000     0.0968778  
H956     H      0.553980000000     0.585930000000     0.623000000000     0.100615   
H957     H      0.486380000000     0.600840000000     0.603180000000     0.0394741  
H958     H      0.522680000000     0.620330000000     0.587090000000     0.0453748  
H959     H      0.996520000000     0.627620000000     0.655490000000     0.0396439  
H960     H      0.033030000000     0.650960000000     0.647800000000     0.0398663  
N1       N      0.365310000000     0.398020000000     0.557180000000    -0.215208   
N2       N      0.445050000000     0.387320000000     0.514600000000    -0.214353   
N3       N      0.397300000000     0.176800000000     0.506170000000    -0.21434    
N4       N      0.399190000000     0.070380000000     0.976320000000    -0.212682   
N5       N      0.151590000000     0.433640000000     0.530270000000    -0.213696   
N6       N      0.127510000000     0.349640000000     0.019890000000    -0.211665   
N7       N      0.101580000000     0.136340000000     0.008880000000    -0.21298    
N8       N      0.186960000000     0.127160000000     0.975640000000    -0.211927   
N9       N      0.392610000000     0.992490000000     0.351640000000    -0.213838   
N10      N      0.394830000000     0.465820000000     0.434290000000    -0.21402    
N11      N      0.092850000000     0.498370000000     0.377390000000    -0.211984   
N12      N      0.180510000000     0.504850000000     0.406500000000    -0.212173   
N13      N      0.130940000000     0.498750000000     0.166920000000    -0.211418   
N14      N      0.157070000000     0.025670000000     0.085690000000    -0.211599   
N15      N      0.379570000000     0.984430000000     0.081350000000    -0.211284   
N16      N      0.422100000000     0.024430000000     0.149660000000    -0.212986   
N17      N      0.505130000000     0.166800000000     0.403730000000    -0.211638   
N18      N      0.496550000000     0.082650000000     0.373180000000    -0.211016   
N19      N      0.988590000000     0.389350000000     0.355570000000    -0.213258   
N20      N      0.551780000000     0.374620000000     0.427720000000    -0.213241   
N21      N      0.041300000000     0.394930000000     0.151100000000    -0.213428   
N22      N      0.999730000000     0.357920000000     0.109480000000    -0.212074   
N23      N      0.978020000000     0.150080000000     0.102660000000    -0.21037    
N24      N      0.528780000000     0.091200000000     0.154390000000    -0.20994    
N25      N      0.338740000000     0.373860000000     0.973750000000    -0.213727   
N26      N      0.421980000000     0.372840000000     0.011130000000    -0.214622   
N27      N      0.395180000000     0.158580000000     0.994700000000    -0.213023   
N28      N      0.406380000000     0.087860000000     0.497530000000    -0.213731   
N29      N      0.128830000000     0.433700000000     0.988720000000    -0.211736   
N30      N      0.163080000000     0.346970000000     0.508880000000    -0.213363   
N31      N      0.104590000000     0.139770000000     0.507290000000    -0.212519   
N32      N      0.189340000000     0.122160000000     0.475890000000    -0.211623   
N33      N      0.382710000000     0.981720000000     0.806930000000    -0.212531   
N34      N      0.363290000000     0.455800000000     0.880190000000    -0.214788   
N35      N      0.071980000000     0.496390000000     0.884690000000    -0.213046   
N36      N      0.155130000000     0.531950000000     0.883670000000    -0.212485   
N37      N      0.164730000000     0.520130000000     0.690250000000    -0.212743   
N38      N      0.163000000000     0.047940000000     0.605250000000    -0.212904   
N39      N      0.383750000000     0.030650000000     0.622580000000    -0.214175   
N40      N      0.467920000000     0.995110000000     0.613060000000    -0.214092   
N41      N      0.504830000000     0.157780000000     0.896340000000    -0.210432   
N42      N      0.486060000000     0.076870000000     0.860640000000    -0.210007   
N43      N      0.994490000000     0.383570000000     0.832840000000    -0.211613   
N44      N      0.527240000000     0.368860000000     0.916490000000    -0.21285    
N45      N      0.103090000000     0.413790000000     0.651720000000    -0.213026   
N46      N      0.069050000000     0.369510000000     0.611370000000    -0.213356   
N47      N      0.000310000000     0.169490000000     0.610930000000    -0.21125    
N48      N      0.541660000000     0.089450000000     0.647100000000    -0.211608   
N49      N      0.366390000000     0.897250000000     0.558160000000    -0.215138   
N50      N      0.443580000000     0.886510000000     0.511150000000    -0.21409    
N51      N      0.400200000000     0.676410000000     0.483150000000    -0.213799   
N52      N      0.398090000000     0.570200000000     0.967930000000    -0.213142   
N53      N      0.151510000000     0.932130000000     0.534490000000    -0.213652   
N54      N      0.128700000000     0.850730000000     0.025990000000    -0.212161   
N55      N      0.102590000000     0.637210000000     0.017140000000    -0.212904   
N56      N      0.186730000000     0.628140000000     0.981190000000    -0.211975   
N57      N      0.393430000000     0.490590000000     0.348430000000    -0.214176   
N58      N      0.394680000000     0.962080000000     0.435610000000    -0.21451    
N59      N      0.092180000000     0.992720000000     0.378750000000    -0.212284   
N60      N      0.179830000000     0.996810000000     0.407840000000    -0.216023   
N61      N      0.128650000000     0.000400000000     0.167690000000    -0.206047   
N62      N      0.159360000000     0.523210000000     0.084870000000    -0.211563   
N63      N      0.381210000000     0.479260000000     0.072650000000    -0.211841   
N64      N      0.422430000000     0.513140000000     0.145290000000    -0.211355   
N65      N      0.511150000000     0.668480000000     0.396840000000    -0.211452   
N66      N      0.494740000000     0.585190000000     0.367100000000    -0.211526   
N67      N      0.988460000000     0.888750000000     0.353960000000    -0.21323    
N68      N      0.552470000000     0.876650000000     0.426330000000    -0.213124   
N69      N      0.025940000000     0.901420000000     0.146330000000    -0.21281    
N70      N      0.990340000000     0.865800000000     0.096280000000    -0.212213   
N71      N      0.977650000000     0.656590000000     0.102270000000    -0.211148   
N72      N      0.519790000000     0.586360000000     0.147160000000    -0.210188   
N73      N      0.340750000000     0.874440000000     0.999300000000    -0.217409   
N74      N      0.429570000000     0.873790000000     0.976620000000    -0.214387   
N75      N      0.399350000000     0.659300000000     0.982450000000    -0.210327   
N76      N      0.405780000000     0.592430000000     0.514450000000    -0.214081   
N77      N      0.130100000000     0.933440000000     0.991600000000    -0.212243   
N78      N      0.161700000000     0.845660000000     0.512520000000    -0.213376   
N79      N      0.103010000000     0.639030000000     0.504990000000    -0.212688   
N80      N      0.190370000000     0.625890000000     0.478770000000    -0.211893   
N81      N      0.379980000000     0.486880000000     0.799730000000    -0.213349   
N82      N      0.368550000000     0.953250000000     0.889440000000    -0.214872   
N83      N      0.077080000000     0.990360000000     0.885710000000    -0.213156   
N84      N      0.159920000000     0.027010000000     0.883710000000    -0.213009   
N85      N      0.164280000000     0.015460000000     0.688890000000    -0.212864   
N86      N      0.163160000000     0.549500000000     0.605490000000    -0.213292   
N87      N      0.384320000000     0.530360000000     0.622150000000    -0.213566   
N88      N      0.469890000000     0.499070000000     0.609480000000    -0.21451    
N89      N      0.519310000000     0.654100000000     0.896620000000    -0.210687   
N90      N      0.482780000000     0.581520000000     0.856920000000    -0.210424   
N91      N      0.996300000000     0.876780000000     0.833700000000    -0.212071   
N92      N      0.543320000000     0.865380000000     0.910520000000    -0.21304    
N93      N      0.098880000000     0.907230000000     0.650320000000    -0.213835   
N94      N      0.060350000000     0.866270000000     0.610350000000    -0.213556   
N95      N      0.992110000000     0.666280000000     0.601190000000    -0.210397   
N96      N      0.539910000000     0.592520000000     0.642980000000    -0.211397   
N97      N      0.882680000000     0.412240000000     0.550940000000    -0.214548   
N98      N      0.964360000000     0.401610000000     0.511830000000    -0.213703   
N99      N      0.903200000000     0.194590000000     0.511710000000    -0.213578   
N100     N      0.897700000000     0.071230000000     0.972600000000    -0.213006   
N101     N      0.666330000000     0.432070000000     0.530140000000    -0.214261   
N102     N      0.627560000000     0.348170000000     0.019430000000    -0.211462   
N103     N      0.600610000000     0.134710000000     0.009710000000    -0.213329   
N104     N      0.685060000000     0.125920000000     0.974540000000    -0.212114   
N105     N      0.889320000000     0.005310000000     0.347700000000    -0.216685   
N106     N      0.902020000000     0.483910000000     0.431070000000    -0.214871   
N107     N      0.597980000000     0.498250000000     0.379170000000    -0.210972   
N108     N      0.685450000000     0.510760000000     0.407830000000    -0.211412   
N109     N      0.632660000000     0.500000000000     0.167940000000    -0.210955   
N110     N      0.657550000000     0.023510000000     0.086400000000    -0.210969   
N111     N      0.880560000000     0.987020000000     0.078750000000    -0.215334   
N112     N      0.921670000000     0.032780000000     0.144160000000    -0.212045   
N113     N      0.002830000000     0.174540000000     0.401250000000    -0.2109     
N114     N      0.997770000000     0.089780000000     0.370790000000    -0.209863   
N115     N      0.496230000000     0.382850000000     0.357770000000    -0.213495   
N116     N      0.056310000000     0.381280000000     0.414930000000    -0.213605   
N117     N      0.548270000000     0.392260000000     0.152850000000    -0.213597   
N118     N      0.504830000000     0.355380000000     0.113420000000    -0.212877   
N119     N      0.478770000000     0.148540000000     0.105370000000    -0.210048   
N120     N      0.032540000000     0.097940000000     0.152650000000    -0.210357   
N121     N      0.838730000000     0.374490000000     0.969750000000    -0.213859   
N122     N      0.922320000000     0.374030000000     0.006340000000    -0.21462    
N123     N      0.896040000000     0.159630000000     0.990510000000    -0.21066    
N124     N      0.906650000000     0.105900000000     0.499060000000    -0.213412   
N125     N      0.628660000000     0.432410000000     0.988550000000    -0.211586   
N126     N      0.643920000000     0.344960000000     0.532520000000    -0.213326   
N127     N      0.600890000000     0.134290000000     0.515180000000    -0.212599   
N128     N      0.686950000000     0.126210000000     0.483700000000    -0.21205    
N129     N      0.887100000000     0.977830000000     0.803600000000    -0.211721   
N130     N      0.861360000000     0.457230000000     0.876530000000    -0.214258   
N131     N      0.570030000000     0.493260000000     0.886400000000    -0.212974   
N132     N      0.652350000000     0.530380000000     0.883250000000    -0.212624   
N133     N      0.661500000000     0.507140000000     0.690450000000    -0.211935   
N134     N      0.667750000000     0.042450000000     0.609320000000    -0.211689   
N135     N      0.890040000000     0.039130000000     0.623330000000    -0.2138     
N136     N      0.973410000000     0.002980000000     0.610610000000    -0.212574   
N137     N      0.006090000000     0.158320000000     0.894810000000    -0.210634   
N138     N      0.985020000000     0.077880000000     0.859180000000    -0.210242   
N139     N      0.485180000000     0.381300000000     0.838180000000    -0.212046   
N140     N      0.030460000000     0.369450000000     0.913710000000    -0.212707   
N141     N      0.586800000000     0.398950000000     0.652680000000    -0.21372    
N142     N      0.539170000000     0.358600000000     0.622970000000    -0.212619   
N143     N      0.488710000000     0.153520000000     0.611340000000    -0.211328   
N144     N      0.040320000000     0.096880000000     0.646140000000    -0.211519   
N145     N      0.882990000000     0.911570000000     0.552550000000    -0.214564   
N146     N      0.962420000000     0.900580000000     0.509130000000    -0.213295   
N147     N      0.902860000000     0.694260000000     0.486950000000    -0.213582   
N148     N      0.896500000000     0.571300000000     0.964540000000    -0.212887   
N149     N      0.665510000000     0.931360000000     0.536490000000    -0.213945   
N150     N      0.628790000000     0.848620000000     0.027420000000    -0.211953   
N151     N      0.601670000000     0.635140000000     0.017930000000    -0.213192   
N152     N      0.685020000000     0.627580000000     0.980220000000    -0.212312   
N153     N      0.889670000000     0.502600000000     0.344320000000    -0.214973   
N154     N      0.901280000000     0.980040000000     0.432730000000    -0.214573   
N155     N      0.597050000000     0.992460000000     0.381200000000    -0.21015    
N156     N      0.684550000000     0.003940000000     0.409740000000    -0.213042   
N157     N      0.630680000000     0.999690000000     0.169530000000    -0.213358   
N158     N      0.659560000000     0.521790000000     0.084480000000    -0.211279   
N159     N      0.881460000000     0.480330000000     0.069470000000    -0.211815   
N160     N      0.922030000000     0.518920000000     0.139950000000    -0.211598   
N161     N      0.007510000000     0.675840000000     0.392890000000    -0.210923   
N162     N      0.994700000000     0.591390000000     0.364020000000    -0.210829   
N163     N      0.494930000000     0.881210000000     0.357320000000    -0.21364    
N164     N      0.056640000000     0.883030000000     0.413430000000    -0.213082   
N165     N      0.532900000000     0.895140000000     0.149570000000    -0.213147   
N166     N      0.492800000000     0.862420000000     0.101420000000    -0.21266    
N167     N      0.477710000000     0.653940000000     0.104480000000    -0.210729   
N168     N      0.022350000000     0.590560000000     0.144510000000    -0.210698   
N169     N      0.841900000000     0.874880000000     0.996930000000    -0.216045   
N170     N      0.930140000000     0.874980000000     0.972100000000    -0.214285   
N171     N      0.900590000000     0.660410000000     0.978900000000    -0.209833   
N172     N      0.906270000000     0.609930000000     0.516890000000    -0.214063   
N173     N      0.630370000000     0.931400000000     0.993030000000    -0.212009   
N174     N      0.641960000000     0.844650000000     0.538100000000    -0.212926   
N175     N      0.600790000000     0.634420000000     0.513740000000    -0.212936   
N176     N      0.688280000000     0.629450000000     0.485930000000    -0.212385   
N177     N      0.883740000000     0.484880000000     0.796050000000    -0.212692   
N178     N      0.866630000000     0.953910000000     0.886430000000    -0.214295   
N179     N      0.574410000000     0.986980000000     0.887810000000    -0.212803   
N180     N      0.656930000000     0.024060000000     0.884230000000    -0.213102   
N181     N      0.660950000000     0.003620000000     0.689900000000    -0.210324   
N182     N      0.667810000000     0.542810000000     0.608420000000    -0.21256    
N183     N      0.890650000000     0.539660000000     0.622330000000    -0.21397    
N184     N      0.975810000000     0.508870000000     0.607130000000    -0.215187   
N185     N      0.020640000000     0.654240000000     0.895500000000    -0.210418   
N186     N      0.980850000000     0.583410000000     0.855870000000    -0.210429   
N187     N      0.488280000000     0.875730000000     0.840030000000    -0.212359   
N188     N      0.046790000000     0.865770000000     0.907140000000    -0.213309   
N189     N      0.581240000000     0.894000000000     0.651400000000    -0.213561   
N190     N      0.531320000000     0.856410000000     0.620850000000    -0.212538   
N191     N      0.483680000000     0.651110000000     0.602390000000    -0.210994   
N192     N      0.039800000000     0.601510000000     0.642760000000    -0.210913   
O1       O      0.432790000000     0.017370000000     0.201740000000    -0.35579    
O2       O      0.472850000000     0.493220000000     0.161970000000    -0.35074    
O3       O      0.504990000000     0.075710000000     0.319170000000    -0.353226   
O4       O      0.995910000000     0.040210000000     0.349870000000    -0.350878   
O5       O      0.516090000000     0.080460000000     0.207470000000    -0.342422   
O6       O      0.028700000000     0.047300000000     0.168800000000    -0.362049   
O7       O      0.412970000000     0.991430000000     0.301350000000    -0.368373   
O8       O      0.449160000000     0.486990000000     0.341350000000    -0.357333   
O9       O      0.386570000000     0.006880000000     0.247180000000    -0.309919   
O10      O      0.411450000000     0.437870000000     0.233620000000    -0.519426   
O11      O      0.465550000000     0.093330000000     0.260290000000    -0.514835   
O12      O      0.051380000000     0.107230000000     0.266390000000    -0.334854   
O13      O      0.478370000000     0.027470000000     0.225620000000    -0.452062   
O14      O      0.469170000000     0.024330000000     0.287840000000    -0.604199   
O15      O      0.991650000000     0.403430000000     0.303810000000    -0.365183   
O16      O      0.502080000000     0.435940000000     0.345440000000    -0.354994   
O17      O      0.109260000000     0.495810000000     0.216600000000    -0.368802   
O18      O      0.072580000000     0.999420000000     0.174430000000    -0.34533    
O19      O      0.089920000000     0.497790000000     0.322900000000    -0.35852    
O20      O      0.042100000000     0.991440000000     0.354860000000    -0.358028   
O21      O      0.023410000000     0.405840000000     0.201360000000    -0.369275   
O22      O      0.535630000000     0.442970000000     0.167250000000    -0.364119   
O23      O      0.052960000000     0.391580000000     0.265700000000    -0.513268   
O24      O      0.483870000000     0.374060000000     0.245590000000    -0.325413   
O25      O      0.113280000000     0.450180000000     0.273070000000    -0.340661   
O26      O      0.124400000000     0.025630000000     0.275230000000    -0.509067   
O27      O      0.040680000000     0.457450000000     0.291210000000    -0.61015    
O28      O      0.051290000000     0.458330000000     0.228940000000    -0.470529   
O29      O      0.472100000000     0.448670000000     0.285800000000    -0.477148   
O30      O      0.052010000000     0.033070000000     0.231010000000    -0.6183     
O31      O      0.482240000000     0.450250000000     0.217100000000    -0.621998   
O32      O      0.041440000000     0.030180000000     0.298000000000    -0.471047   
O33      O      0.096430000000     0.190850000000     0.010290000000    -0.36703    
O34      O      0.057340000000     0.168950000000     0.506880000000    -0.358281   
O35      O      0.000740000000     0.305400000000     0.095700000000    -0.367481   
O36      O      0.512570000000     0.342390000000     0.061540000000    -0.359524   
O37      O      0.984630000000     0.201740000000     0.090730000000    -0.374042   
O38      O      0.495790000000     0.162580000000     0.054450000000    -0.340455   
O39      O      0.108920000000     0.298620000000     0.015600000000    -0.355828   
O40      O      0.107150000000     0.344740000000     0.509580000000    -0.358477   
O41      O      0.109390000000     0.242260000000     0.061980000000    -0.342045   
O42      O      0.144040000000     0.240640000000     0.470270000000    -0.515135   
O43      O      0.045500000000     0.244130000000     0.108550000000    -0.513034   
O44      O      0.465560000000     0.254340000000     0.118220000000    -0.31841    
O45      O      0.039890000000     0.217510000000     0.043450000000    -0.469352   
O46      O      0.047490000000     0.281180000000     0.047170000000    -0.612183   
O47      O      0.540560000000     0.321120000000     0.433040000000    -0.360811   
O48      O      0.058880000000     0.361250000000     0.464700000000    -0.359721   
O49      O      0.420440000000     0.226150000000     0.505770000000    -0.363776   
O50      O      0.450380000000     0.168050000000     0.998910000000    -0.359975   
O51      O      0.443840000000     0.332550000000     0.514690000000    -0.366403   
O52      O      0.472530000000     0.350520000000     0.010190000000    -0.35541    
O53      O      0.516770000000     0.215760000000     0.422460000000    -0.365471   
O54      O      0.007930000000     0.184460000000     0.455440000000    -0.348332   
O55      O      0.489300000000     0.277800000000     0.408950000000    -0.512095   
O56      O      0.071410000000     0.265710000000     0.397530000000    -0.3323     
O57      O      0.422980000000     0.284740000000     0.463280000000    -0.341516   
O58      O      0.391690000000     0.264510000000     0.031270000000    -0.515605   
O59      O      0.495040000000     0.301460000000     0.479720000000    -0.615255   
O60      O      0.482270000000     0.239310000000     0.474640000000    -0.458972   
O61      O      0.079830000000     0.295110000000     0.472540000000    -0.47844    
O62      O      0.465640000000     0.223100000000     0.037990000000    -0.623449   
O63      O      0.060220000000     0.229410000000     0.470640000000    -0.621589   
O64      O      0.473410000000     0.290460000000     0.042560000000    -0.477622   
O65      O      0.343130000000     0.072890000000     0.976600000000    -0.371589   
O66      O      0.380730000000     0.041940000000     0.512320000000    -0.355631   
O67      O      0.211430000000     0.014700000000     0.075110000000    -0.356285   
O68      O      0.176020000000     0.525670000000     0.033530000000    -0.357156   
O69      O      0.324630000000     0.997220000000     0.073090000000    -0.355304   
O70      O      0.358430000000     0.477300000000     0.023960000000    -0.365917   
O71      O      0.236160000000     0.101230000000     0.976130000000    -0.359061   
O72      O      0.195020000000     0.071020000000     0.494320000000    -0.357542   
O73      O      0.293750000000     0.102830000000     0.021970000000    -0.340081   
O74      O      0.302280000000     0.104320000000     0.450440000000    -0.513066   
O75      O      0.275520000000     0.053140000000     0.084180000000    -0.51474    
O76      O      0.264370000000     0.468660000000     0.095490000000    -0.330779   
O77      O      0.308120000000     0.030220000000     0.018790000000    -0.467297   
O78      O      0.244640000000     0.047260000000     0.018870000000    -0.606998   
O79      O      0.232400000000     0.501410000000     0.425160000000    -0.365552   
O80      O      0.189870000000     0.008630000000     0.460470000000    -0.352883   
O81      O      0.314700000000     0.418930000000     0.549270000000    -0.375767   
O82      O      0.339070000000     0.428350000000     0.977220000000    -0.350605   
O83      O      0.207240000000     0.437390000000     0.535590000000    -0.364463   
O84      O      0.159490000000     0.479200000000     0.986140000000    -0.35476    
O85      O      0.340440000000     0.479640000000     0.438540000000    -0.367119   
O86      O      0.374550000000     0.978650000000     0.483210000000    -0.363277   
O87      O      0.276060000000     0.443260000000     0.431480000000    -0.512756   
O88      O      0.294360000000     0.007720000000     0.400470000000    -0.321458   
O89      O      0.261660000000     0.403770000000     0.500890000000    -0.343064   
O90      O      0.235920000000     0.395970000000     0.024060000000    -0.513743   
O91      O      0.242580000000     0.474030000000     0.488840000000    -0.609435   
O92      O      0.306810000000     0.462950000000     0.495920000000    -0.473129   
O93      O      0.253310000000     0.038570000000     0.468210000000    -0.473701   
O94      O      0.289480000000     0.457420000000     0.018060000000    -0.621462   
O95      O      0.322510000000     0.028080000000     0.476150000000    -0.624466   
O96      O      0.221890000000     0.476600000000     0.021090000000    -0.4726     
O97      O      0.459230000000     0.988470000000     0.666180000000    -0.371355   
O98      O      0.513520000000     0.495850000000     0.643800000000    -0.355128   
O99      O      0.502870000000     0.070960000000     0.808300000000    -0.3539     
O100     O      0.987090000000     0.029090000000     0.835860000000    -0.3494     
O101     O      0.527670000000     0.076920000000     0.699100000000    -0.351475   
O102     O      0.053210000000     0.048150000000     0.664440000000    -0.359873   
O103     O      0.415810000000     0.979630000000     0.763630000000    -0.362411   
O104     O      0.435870000000     0.485480000000     0.808480000000    -0.356186   
O105     O      0.419380000000     0.023300000000     0.711450000000    -0.329788   
O106     O      0.422760000000     0.444750000000     0.699920000000    -0.516401   
O107     O      0.471500000000     0.088170000000     0.745090000000    -0.517072   
O108     O      0.047450000000     0.107300000000     0.763080000000    -0.334212   
O109     O      0.498110000000     0.022910000000     0.708270000000    -0.465876   
O110     O      0.472940000000     0.018510000000     0.766620000000    -0.607032   
O111     O      0.010880000000     0.402330000000     0.784990000000    -0.362739   
O112     O      0.489870000000     0.435060000000     0.828390000000    -0.35511    
O113     O      0.131360000000     0.514660000000     0.733700000000    -0.367644   
O114     O      0.108990000000     0.007870000000     0.683210000000    -0.351255   
O115     O      0.084020000000     0.502040000000     0.831670000000    -0.357075   
O116     O      0.035120000000     0.985680000000     0.850320000000    -0.356688   
O117     O      0.070070000000     0.417830000000     0.695470000000    -0.363184   
O118     O      0.569530000000     0.449210000000     0.664630000000    -0.359641   
O119     O      0.076480000000     0.396850000000     0.761030000000    -0.509417   
O120     O      0.499670000000     0.377450000000     0.724860000000    -0.327801   
O121     O      0.128520000000     0.467180000000     0.787240000000    -0.343093   
O122     O      0.126260000000     0.039810000000     0.794720000000    -0.516166   
O123     O      0.050780000000     0.462610000000     0.786360000000    -0.60957    
O124     O      0.077980000000     0.469610000000     0.729890000000    -0.469979   
O125     O      0.475760000000     0.449480000000     0.762130000000    -0.478398   
O126     O      0.069460000000     0.036200000000     0.732850000000    -0.621      
O127     O      0.505250000000     0.454270000000     0.699530000000    -0.625835   
O128     O      0.042070000000     0.027900000000     0.795210000000    -0.473249   
O129     O      0.107530000000     0.194350000000     0.506670000000    -0.368292   
O130     O      0.050780000000     0.158630000000     0.005730000000    -0.360784   
O131     O      0.050950000000     0.319440000000     0.599200000000    -0.367093   
O132     O      0.534260000000     0.346950000000     0.570730000000    -0.361725   
O133     O      0.012270000000     0.219980000000     0.597580000000    -0.373236   
O134     O      0.502130000000     0.169050000000     0.560160000000    -0.34451    
O135     O      0.137580000000     0.298550000000     0.508130000000    -0.357915   
O136     O      0.072060000000     0.340290000000     0.016340000000    -0.355722   
O137     O      0.136920000000     0.242720000000     0.551340000000    -0.339728   
O138     O      0.130630000000     0.242480000000     0.983360000000    -0.513312   
O139     O      0.077780000000     0.252110000000     0.608660000000    -0.512397   
O140     O      0.475760000000     0.264190000000     0.625360000000    -0.323274   
O141     O      0.060860000000     0.228910000000     0.543590000000    -0.468452   
O142     O      0.078590000000     0.290190000000     0.545150000000    -0.614575   
O143     O      0.523730000000     0.314460000000     0.923270000000    -0.360039   
O144     O      0.026600000000     0.349380000000     0.963510000000    -0.361886   
O145     O      0.413820000000     0.209960000000     0.996190000000    -0.361019   
O146     O      0.453250000000     0.181400000000     0.508030000000    -0.361144   
O147     O      0.426610000000     0.318480000000     0.007100000000    -0.365672   
O148     O      0.492830000000     0.359960000000     0.516510000000    -0.360037   
O149     O      0.512850000000     0.207260000000     0.915310000000    -0.365118   
O150     O      0.003370000000     0.167680000000     0.949270000000    -0.346319   
O151     O      0.478390000000     0.265290000000     0.900260000000    -0.51166    
O152     O      0.064760000000     0.257240000000     0.899960000000    -0.332308   
O153     O      0.412370000000     0.269910000000     0.952620000000    -0.345197   
O154     O      0.405040000000     0.281670000000     0.542840000000    -0.516631   
O155     O      0.481340000000     0.292180000000     0.970700000000    -0.614514   
O156     O      0.474220000000     0.228590000000     0.966240000000    -0.461725   
O157     O      0.057950000000     0.287090000000     0.975210000000    -0.480708   
O158     O      0.474430000000     0.232990000000     0.546450000000    -0.622645   
O159     O      0.049090000000     0.219190000000     0.971090000000    -0.62247    
O160     O      0.487860000000     0.299580000000     0.552480000000    -0.480216   
O161     O      0.350240000000     0.085100000000     0.495730000000    -0.370044   
O162     O      0.369200000000     0.024520000000     0.982120000000    -0.349576   
O163     O      0.218310000000     0.040010000000     0.599020000000    -0.363192   
O164     O      0.183580000000     0.539120000000     0.556030000000    -0.355102   
O165     O      0.329610000000     0.030680000000     0.607940000000    -0.361807   
O166     O      0.369720000000     0.514710000000     0.572360000000    -0.362339   
O167     O      0.240600000000     0.101770000000     0.483590000000    -0.35855    
O168     O      0.188040000000     0.072930000000     0.981970000000    -0.357913   
O169     O      0.294610000000     0.120430000000     0.529690000000    -0.341545   
O170     O      0.295930000000     0.105890000000     0.940570000000    -0.5117     
O171     O      0.278530000000     0.084680000000     0.600350000000    -0.514753   
O172     O      0.267960000000     0.507910000000     0.635780000000    -0.330743   
O173     O      0.316090000000     0.050730000000     0.544880000000    -0.47166    
O174     O      0.251270000000     0.060460000000     0.538020000000    -0.609634   
O175     O      0.208330000000     0.519120000000     0.893830000000    -0.363533   
O176     O      0.174650000000     0.022100000000     0.936060000000    -0.355164   
O177     O      0.290450000000     0.400310000000     0.978330000000    -0.368566   
O178     O      0.360590000000     0.449950000000     0.540790000000    -0.358211   
O179     O      0.185030000000     0.430340000000     0.988030000000    -0.361457   
O180     O      0.176950000000     0.480890000000     0.519740000000    -0.356435   
O181     O      0.312960000000     0.478290000000     0.891400000000    -0.362171   
O182     O      0.354080000000     0.967230000000     0.939350000000    -0.366131   
O183     O      0.242830000000     0.458210000000     0.879600000000    -0.51563    
O184     O      0.277410000000     0.025260000000     0.870400000000    -0.324897   
O185     O      0.229000000000     0.400140000000     0.943510000000    -0.334118   
O186     O      0.254010000000     0.416200000000     0.581060000000    -0.510843   
O187     O      0.220760000000     0.474420000000     0.947730000000    -0.610788   
O188     O      0.283240000000     0.456740000000     0.945440000000    -0.468963   
O189     O      0.240910000000     0.042520000000     0.945760000000    -0.473484   
O190     O      0.304160000000     0.482050000000     0.566400000000    -0.625087   
O191     O      0.308770000000     0.023960000000     0.946170000000    -0.621451   
O192     O      0.234840000000     0.493390000000     0.558920000000    -0.476429   
O193     O      0.433490000000     0.509150000000     0.197570000000    -0.358064   
O194     O      0.471140000000     0.001080000000     0.165270000000    -0.348983   
O195     O      0.503070000000     0.576570000000     0.313370000000    -0.354131   
O196     O      0.994060000000     0.540950000000     0.345380000000    -0.355044   
O197     O      0.511200000000     0.577460000000     0.201470000000    -0.342476   
O198     O      0.025340000000     0.541090000000     0.163980000000    -0.365195   
O199     O      0.414290000000     0.487710000000     0.298340000000    -0.36655    
O200     O      0.448100000000     0.987290000000     0.343960000000    -0.35901    
O201     O      0.387440000000     0.498370000000     0.243050000000    -0.31389    
O202     O      0.406960000000     0.945630000000     0.234180000000    -0.519482   
O203     O      0.461420000000     0.589820000000     0.254920000000    -0.514883   
O204     O      0.046630000000     0.606500000000     0.258070000000    -0.33665    
O205     O      0.478110000000     0.523270000000     0.221590000000    -0.454646   
O206     O      0.468710000000     0.522100000000     0.283800000000    -0.606932   
O207     O      0.989050000000     0.904750000000     0.302600000000    -0.365015   
O208     O      0.499990000000     0.934530000000     0.346120000000    -0.356062   
O209     O      0.107470000000     0.996070000000     0.217540000000    -0.368955   
O210     O      0.074810000000     0.496420000000     0.173050000000    -0.344999   
O211     O      0.089000000000     0.993810000000     0.324290000000    -0.359561   
O212     O      0.042940000000     0.494250000000     0.353230000000    -0.357293   
O213     O      0.012510000000     0.910680000000     0.198300000000    -0.368962   
O214     O      0.528390000000     0.946010000000     0.167440000000    -0.364127   
O215     O      0.046770000000     0.892550000000     0.259520000000    -0.512157   
O216     O      0.475540000000     0.876910000000     0.246000000000    -0.324209   
O217     O      0.108900000000     0.946360000000     0.271810000000    -0.342101   
O218     O      0.123210000000     0.530530000000     0.272610000000    -0.512069   
O219     O      0.037430000000     0.957120000000     0.291050000000    -0.609359   
O220     O      0.047620000000     0.960250000000     0.228750000000    -0.469232   
O221     O      0.468490000000     0.950770000000     0.286960000000    -0.476795   
O222     O      0.051540000000     0.531210000000     0.227370000000    -0.621644   
O223     O      0.478220000000     0.954610000000     0.218390000000    -0.621472   
O224     O      0.040310000000     0.530890000000     0.294550000000    -0.475234   
O225     O      0.097860000000     0.691800000000     0.017000000000    -0.366701   
O226     O      0.055930000000     0.668220000000     0.501280000000    -0.358744   
O227     O      0.992410000000     0.812410000000     0.086000000000    -0.36692    
O228     O      0.508350000000     0.846390000000     0.052010000000    -0.360922   
O229     O      0.980750000000     0.707550000000     0.086600000000    -0.372643   
O230     O      0.495040000000     0.665930000000     0.053030000000    -0.341429   
O231     O      0.110520000000     0.799650000000     0.021110000000    -0.356954   
O232     O      0.105680000000     0.843890000000     0.510450000000    -0.357776   
O233     O      0.103650000000     0.744540000000     0.069600000000    -0.342368   
O234     O      0.144600000000     0.740390000000     0.470810000000    -0.515811   
O235     O      0.034330000000     0.754070000000     0.108640000000    -0.512359   
O236     O      0.452340000000     0.760290000000     0.105850000000    -0.321001   
O237     O      0.037330000000     0.721160000000     0.044050000000    -0.467699   
O238     O      0.045380000000     0.784540000000     0.045110000000    -0.611721   
O239     O      0.543220000000     0.822790000000     0.430450000000    -0.360984   
O240     O      0.058880000000     0.861670000000     0.462770000000    -0.358986   
O241     O      0.421690000000     0.725790000000     0.491990000000    -0.363633   
O242     O      0.453800000000     0.668810000000     0.992530000000    -0.359862   
O243     O      0.442960000000     0.831780000000     0.508850000000    -0.365469   
O244     O      0.478060000000     0.851370000000     0.990600000000    -0.357826   
O245     O      0.522420000000     0.717270000000     0.416610000000    -0.363843   
O246     O      0.009790000000     0.685020000000     0.447200000000    -0.347448   
O247     O      0.496570000000     0.778910000000     0.401960000000    -0.510854   
O248     O      0.077630000000     0.767800000000     0.395170000000    -0.333681   
O249     O      0.425630000000     0.786970000000     0.454090000000    -0.342686   
O250     O      0.393570000000     0.768950000000     0.012970000000    -0.517223   
O251     O      0.496730000000     0.801760000000     0.474320000000    -0.613544   
O252     O      0.484880000000     0.740010000000     0.467350000000    -0.458824   
O253     O      0.080610000000     0.795180000000     0.470660000000    -0.478294   
O254     O      0.464520000000     0.725730000000     0.029580000000    -0.622582   
O255     O      0.061240000000     0.729420000000     0.466160000000    -0.621891   
O256     O      0.472220000000     0.793660000000     0.031270000000    -0.47668    
O257     O      0.342120000000     0.573260000000     0.971640000000    -0.371844   
O258     O      0.380930000000     0.544000000000     0.517370000000    -0.356734   
O259     O      0.213170000000     0.511240000000     0.072460000000    -0.356732   
O260     O      0.175270000000     0.027120000000     0.034650000000    -0.355493   
O261     O      0.325980000000     0.491960000000     0.066450000000    -0.352318   
O262     O      0.358190000000     0.979930000000     0.032420000000    -0.365697   
O263     O      0.235620000000     0.601910000000     0.978310000000    -0.359832   
O264     O      0.195620000000     0.574130000000     0.495490000000    -0.356686   
O265     O      0.295280000000     0.599840000000     0.022320000000    -0.34039    
O266     O      0.305900000000     0.606940000000     0.453930000000    -0.516789   
O267     O      0.278210000000     0.547170000000     0.082140000000    -0.513843   
O268     O      0.262680000000     0.975470000000     0.102020000000    -0.332969   
O269     O      0.308160000000     0.528300000000     0.014430000000    -0.468573   
O270     O      0.244950000000     0.545390000000     0.017130000000    -0.604572   
O271     O      0.231750000000     0.994350000000     0.426340000000    -0.372877   
O272     O      0.190260000000     0.513660000000     0.459780000000    -0.351443   
O273     O      0.315500000000     0.918210000000     0.551890000000    -0.374269   
O274     O      0.340530000000     0.928610000000     0.992270000000    -0.351273   
O275     O      0.207290000000     0.935990000000     0.539360000000    -0.363212   
O276     O      0.160590000000     0.978940000000     0.988420000000    -0.35876    
O277     O      0.340090000000     0.975090000000     0.439880000000    -0.368567   
O278     O      0.374800000000     0.482250000000     0.482000000000    -0.362786   
O279     O      0.276070000000     0.936720000000     0.435760000000    -0.513194   
O280     O      0.295800000000     0.515920000000     0.400500000000    -0.326164   
O281     O      0.261060000000     0.900440000000     0.507290000000    -0.342214   
O282     O      0.233480000000     0.897470000000     0.032080000000    -0.510714   
O283     O      0.242280000000     0.970460000000     0.491210000000    -0.611823   
O284     O      0.306730000000     0.960070000000     0.498430000000    -0.473979   
O285     O      0.253970000000     0.543120000000     0.469310000000    -0.47468    
O286     O      0.289400000000     0.959850000000     0.025890000000    -0.623459   
O287     O      0.323350000000     0.532110000000     0.477150000000    -0.625192   
O288     O      0.222000000000     0.978500000000     0.025870000000    -0.476679   
O289     O      0.460480000000     0.491620000000     0.662240000000    -0.371228   
O290     O      0.511970000000     0.991840000000     0.646690000000    -0.356366   
O291     O      0.500630000000     0.575560000000     0.804850000000    -0.353386   
O292     O      0.982300000000     0.535040000000     0.831920000000    -0.354229   
O293     O      0.525270000000     0.580650000000     0.695040000000    -0.349929   
O294     O      0.054400000000     0.553890000000     0.662780000000    -0.361793   
O295     O      0.414530000000     0.484130000000     0.757750000000    -0.364151   
O296     O      0.438810000000     0.980670000000     0.813700000000    -0.357984   
O297     O      0.418670000000     0.525250000000     0.705100000000    -0.330497   
O298     O      0.421190000000     0.942680000000     0.704240000000    -0.515496   
O299     O      0.469580000000     0.592740000000     0.741440000000    -0.518189   
O300     O      0.045390000000     0.613410000000     0.759900000000    -0.334959   
O301     O      0.497810000000     0.526730000000     0.704740000000    -0.469196   
O302     O      0.471190000000     0.522720000000     0.762260000000    -0.610547   
O303     O      0.010350000000     0.895970000000     0.785410000000    -0.365487   
O304     O      0.493100000000     0.929540000000     0.830800000000    -0.354554   
O305     O      0.132320000000     0.008740000000     0.733140000000    -0.366767   
O306     O      0.109600000000     0.513100000000     0.683140000000    -0.354483   
O307     O      0.087630000000     0.995760000000     0.832360000000    -0.360185   
O308     O      0.030920000000     0.492320000000     0.848150000000    -0.35451    
O309     O      0.067790000000     0.911580000000     0.695280000000    -0.369287   
O310     O      0.567070000000     0.944700000000     0.665320000000    -0.35914    
O311     O      0.079460000000     0.893920000000     0.763240000000    -0.513032   
O312     O      0.498660000000     0.873080000000     0.727070000000    -0.326254   
O313     O      0.130300000000     0.959660000000     0.786140000000    -0.342368   
O314     O      0.122610000000     0.547210000000     0.794820000000    -0.516586   
O315     O      0.053150000000     0.956250000000     0.787840000000    -0.609753   
O316     O      0.078680000000     0.963490000000     0.730390000000    -0.473457   
O317     O      0.476540000000     0.945370000000     0.765370000000    -0.477149   
O318     O      0.068370000000     0.542370000000     0.731470000000    -0.6217     
O319     O      0.504230000000     0.950520000000     0.702200000000    -0.625173   
O320     O      0.038990000000     0.534160000000     0.793110000000    -0.474634   
O321     O      0.105990000000     0.693590000000     0.504970000000    -0.368367   
O322     O      0.052420000000     0.659760000000     0.009860000000    -0.360034   
O323     O      0.043750000000     0.816400000000     0.595820000000    -0.367253   
O324     O      0.529810000000     0.845850000000     0.568160000000    -0.361089   
O325     O      0.004660000000     0.717190000000     0.589860000000    -0.372574   
O326     O      0.499540000000     0.667990000000     0.552290000000    -0.34657    
O327     O      0.135960000000     0.797570000000     0.509540000000    -0.358484   
O328     O      0.074230000000     0.841420000000     0.015560000000    -0.355343   
O329     O      0.133010000000     0.741280000000     0.551320000000    -0.338835   
O330     O      0.135920000000     0.742490000000     0.994690000000    -0.514974   
O331     O      0.069610000000     0.748630000000     0.605540000000    -0.512387   
O332     O      0.468370000000     0.761690000000     0.617610000000    -0.323479   
O333     O      0.057200000000     0.727340000000     0.539010000000    -0.469248   
O334     O      0.074610000000     0.788510000000     0.542990000000    -0.613366   
O335     O      0.537440000000     0.811410000000     0.918880000000    -0.359578   
O336     O      0.039050000000     0.847960000000     0.957180000000    -0.361217   
O337     O      0.418400000000     0.710600000000     0.982950000000    -0.360474   
O338     O      0.455090000000     0.681450000000     0.493200000000    -0.362127   
O339     O      0.432540000000     0.819570000000     0.982960000000    -0.367614   
O340     O      0.491630000000     0.859530000000     0.512430000000    -0.359406   
O341     O      0.528290000000     0.703730000000     0.914540000000    -0.366799   
O342     O      0.010530000000     0.666930000000     0.948430000000    -0.344201   
O343     O      0.497990000000     0.760530000000     0.891620000000    -0.511661   
O344     O      0.081560000000     0.753080000000     0.903050000000    -0.332845   
O345     O      0.421780000000     0.765630000000     0.936360000000    -0.34184    
O346     O      0.403060000000     0.778930000000     0.532060000000    -0.517284   
O347     O      0.490280000000     0.790830000000     0.961230000000    -0.614075   
O348     O      0.482990000000     0.727740000000     0.959020000000    -0.45998    
O349     O      0.065190000000     0.786340000000     0.974840000000    -0.480326   
O350     O      0.472260000000     0.731730000000     0.538280000000    -0.622561   
O351     O      0.055870000000     0.718350000000     0.973320000000    -0.621742   
O352     O      0.485150000000     0.798530000000     0.546420000000    -0.479203   
O353     O      0.350150000000     0.588930000000     0.507450000000    -0.366641   
O354     O      0.367980000000     0.524560000000     0.974710000000    -0.35221    
O355     O      0.218240000000     0.540170000000     0.599450000000    -0.365683   
O356     O      0.183450000000     0.037630000000     0.555800000000    -0.35357    
O357     O      0.329840000000     0.529670000000     0.608250000000    -0.360352   
O358     O      0.369640000000     0.014990000000     0.572510000000    -0.36281    
O359     O      0.241410000000     0.605380000000     0.487360000000    -0.357734   
O360     O      0.187470000000     0.573560000000     0.983590000000    -0.356489   
O361     O      0.292960000000     0.624230000000     0.531410000000    -0.337412   
O362     O      0.293570000000     0.608760000000     0.941240000000    -0.510854   
O363     O      0.278410000000     0.582320000000     0.604640000000    -0.515909   
O364     O      0.268590000000     0.012660000000     0.636420000000    -0.323377   
O365     O      0.315940000000     0.551100000000     0.546810000000    -0.469611   
O366     O      0.251490000000     0.561560000000     0.540020000000    -0.609867   
O367     O      0.212700000000     0.014610000000     0.896070000000    -0.360681   
O368     O      0.171710000000     0.524880000000     0.935300000000    -0.356428   
O369     O      0.292110000000     0.900330000000     0.995390000000    -0.373803   
O370     O      0.361140000000     0.949120000000     0.541840000000    -0.359565   
O371     O      0.186270000000     0.930390000000     0.993620000000    -0.361447   
O372     O      0.176830000000     0.978870000000     0.522140000000    -0.359076   
O373     O      0.317360000000     0.974930000000     0.898360000000    -0.363624   
O374     O      0.351300000000     0.469300000000     0.930710000000    -0.363239   
O375     O      0.247350000000     0.951550000000     0.887540000000    -0.513875   
O376     O      0.273310000000     0.532370000000     0.867360000000    -0.329762   
O377     O      0.234750000000     0.899340000000     0.950530000000    -0.338819   
O378     O      0.255190000000     0.917920000000     0.586580000000    -0.512353   
O379     O      0.223080000000     0.972340000000     0.952750000000    -0.610913   
O380     O      0.285940000000     0.954540000000     0.953160000000    -0.470631   
O381     O      0.238760000000     0.545000000000     0.944040000000    -0.475346   
O382     O      0.304530000000     0.982410000000     0.567720000000    -0.627835   
O383     O      0.306470000000     0.526030000000     0.941360000000    -0.624706   
O384     O      0.235110000000     0.993160000000     0.560210000000    -0.480017   
O385     O      0.930640000000     0.026410000000     0.196660000000    -0.357088   
O386     O      0.971450000000     0.498530000000     0.158380000000    -0.352266   
O387     O      0.006010000000     0.082850000000     0.316630000000    -0.35156    
O388     O      0.496870000000     0.032930000000     0.352740000000    -0.353146   
O389     O      0.018620000000     0.087240000000     0.205220000000    -0.344119   
O390     O      0.528020000000     0.040770000000     0.171310000000    -0.361966   
O391     O      0.909250000000     0.002670000000     0.297280000000    -0.364666   
O392     O      0.944920000000     0.496200000000     0.337350000000    -0.361795   
O393     O      0.886740000000     0.025790000000     0.244490000000    -0.31018    
O394     O      0.904790000000     0.448710000000     0.230250000000    -0.520935   
O395     O      0.968560000000     0.102740000000     0.257430000000    -0.51435    
O396     O      0.547970000000     0.102580000000     0.268450000000    -0.335053   
O397     O      0.977730000000     0.036460000000     0.222320000000    -0.453879   
O398     O      0.967820000000     0.033530000000     0.284500000000    -0.606631   
O399     O      0.501050000000     0.397480000000     0.306330000000    -0.365533   
O400     O      0.995830000000     0.442030000000     0.342570000000    -0.356107   
O401     O      0.611850000000     0.496240000000     0.217980000000    -0.367874   
O402     O      0.574800000000     0.995740000000     0.176810000000    -0.345009   
O403     O      0.594320000000     0.497480000000     0.324660000000    -0.35682    
O404     O      0.546920000000     0.987120000000     0.357660000000    -0.356803   
O405     O      0.531110000000     0.402170000000     0.203510000000    -0.369993   
O406     O      0.031050000000     0.446240000000     0.165150000000    -0.363112   
O407     O      0.562810000000     0.389420000000     0.267370000000    -0.513252   
O408     O      0.973500000000     0.380910000000     0.242720000000    -0.325455   
O409     O      0.619100000000     0.450650000000     0.274480000000    -0.341147   
O410     O      0.626100000000     0.025110000000     0.277000000000    -0.508787   
O411     O      0.546710000000     0.454140000000     0.293610000000    -0.609458   
O412     O      0.556410000000     0.455880000000     0.230990000000    -0.470542   
O413     O      0.965880000000     0.456080000000     0.282620000000    -0.47705    
O414     O      0.552830000000     0.028360000000     0.233510000000    -0.61841    
O415     O      0.977090000000     0.456800000000     0.214050000000    -0.621901   
O416     O      0.542900000000     0.025180000000     0.300660000000    -0.470172   
O417     O      0.595700000000     0.189250000000     0.010800000000    -0.367045   
O418     O      0.552100000000     0.160770000000     0.512600000000    -0.358736   
O419     O      0.504010000000     0.303170000000     0.098790000000    -0.369095   
O420     O      0.010870000000     0.344200000000     0.058360000000    -0.358944   
O421     O      0.486020000000     0.200070000000     0.093420000000    -0.374356   
O422     O      0.995810000000     0.164190000000     0.052170000000    -0.342123   
O423     O      0.608760000000     0.297160000000     0.015610000000    -0.355318   
O424     O      0.588900000000     0.338340000000     0.528060000000    -0.362095   
O425     O      0.610600000000     0.240800000000     0.061720000000    -0.342204   
O426     O      0.637700000000     0.238860000000     0.487350000000    -0.514842   
O427     O      0.547590000000     0.241350000000     0.109850000000    -0.512748   
O428     O      0.963330000000     0.255960000000     0.114980000000    -0.318435   
O429     O      0.540340000000     0.215840000000     0.044790000000    -0.46933    
O430     O      0.548140000000     0.279500000000     0.048780000000    -0.612706   
O431     O      0.045080000000     0.328200000000     0.423120000000    -0.360514   
O432     O      0.547050000000     0.353380000000     0.476840000000    -0.358786   
O433     O      0.929700000000     0.242290000000     0.509110000000    -0.363547   
O434     O      0.951160000000     0.169210000000     0.995940000000    -0.358255   
O435     O      0.960200000000     0.347000000000     0.512640000000    -0.366326   
O436     O      0.972900000000     0.351810000000     0.006060000000    -0.355071   
O437     O      0.016990000000     0.223590000000     0.417920000000    -0.365385   
O438     O      0.505450000000     0.175490000000     0.458150000000    -0.350488   
O439     O      0.991400000000     0.285850000000     0.404860000000    -0.511581   
O440     O      0.570470000000     0.260580000000     0.408010000000    -0.331446   
O441     O      0.931830000000     0.299520000000     0.465140000000    -0.342021   
O442     O      0.891500000000     0.265820000000     0.025850000000    -0.513914   
O443     O      0.006040000000     0.312180000000     0.474460000000    -0.6154     
O444     O      0.988750000000     0.250580000000     0.472400000000    -0.459218   
O445     O      0.569730000000     0.288930000000     0.484670000000    -0.479124   
O446     O      0.965390000000     0.224570000000     0.034810000000    -0.621839   
O447     O      0.554820000000     0.222320000000     0.479080000000    -0.622154   
O448     O      0.972960000000     0.291950000000     0.039010000000    -0.476      
O449     O      0.841590000000     0.073290000000     0.974010000000    -0.37114    
O450     O      0.884240000000     0.058210000000     0.512770000000    -0.357121   
O451     O      0.711970000000     0.013550000000     0.074970000000    -0.35569    
O452     O      0.675530000000     0.524560000000     0.032900000000    -0.356523   
O453     O      0.825310000000     0.998450000000     0.070990000000    -0.356289   
O454     O      0.858240000000     0.477900000000     0.020920000000    -0.365476   
O455     O      0.734430000000     0.100410000000     0.974640000000    -0.35973    
O456     O      0.696740000000     0.074740000000     0.499380000000    -0.357385   
O457     O      0.792380000000     0.102540000000     0.020350000000    -0.340405   
O458     O      0.800030000000     0.118370000000     0.456420000000    -0.512475   
O459     O      0.775320000000     0.053260000000     0.082740000000    -0.514933   
O460     O      0.765220000000     0.468090000000     0.093330000000    -0.330728   
O461     O      0.807630000000     0.030320000000     0.016930000000    -0.467072   
O462     O      0.743920000000     0.046760000000     0.017920000000    -0.606757   
O463     O      0.737890000000     0.510800000000     0.425590000000    -0.365121   
O464     O      0.694840000000     0.013660000000     0.462870000000    -0.35064    
O465     O      0.830370000000     0.429350000000     0.543860000000    -0.375101   
O466     O      0.838720000000     0.428930000000     0.973830000000    -0.351163   
O467     O      0.721360000000     0.440090000000     0.533410000000    -0.366525   
O468     O      0.658850000000     0.478200000000     0.985580000000    -0.354209   
O469     O      0.847240000000     0.494390000000     0.437260000000    -0.369132   
O470     O      0.882150000000     0.995680000000     0.481070000000    -0.363296   
O471     O      0.785730000000     0.456980000000     0.426950000000    -0.512095   
O472     O      0.798690000000     0.024580000000     0.401480000000    -0.327082   
O473     O      0.777300000000     0.412510000000     0.495210000000    -0.341549   
O474     O      0.736740000000     0.395520000000     0.022020000000    -0.51385    
O475     O      0.752020000000     0.481340000000     0.487520000000    -0.610391   
O476     O      0.817130000000     0.475070000000     0.492960000000    -0.473679   
O477     O      0.756500000000     0.048160000000     0.471140000000    -0.4765     
O478     O      0.789430000000     0.457470000000     0.015610000000    -0.620996   
O479     O      0.826430000000     0.042110000000     0.477190000000    -0.626268   
O480     O      0.721670000000     0.476060000000     0.019550000000    -0.47271    
O481     O      0.964510000000     0.993260000000     0.663230000000    -0.369315   
O482     O      0.019010000000     0.504450000000     0.641630000000    -0.357246   
O483     O      0.001700000000     0.073490000000     0.806790000000    -0.355829   
O484     O      0.485650000000     0.027860000000     0.838000000000    -0.351255   
O485     O      0.026840000000     0.083150000000     0.698060000000    -0.350892   
O486     O      0.552010000000     0.040230000000     0.665850000000    -0.358311   
O487     O      0.920470000000     0.977890000000     0.760270000000    -0.36048    
O488     O      0.939530000000     0.486220000000     0.805170000000    -0.35718    
O489     O      0.920250000000     0.021050000000     0.708350000000    -0.327462   
O490     O      0.930400000000     0.446450000000     0.694780000000    -0.519388   
O491     O      0.969300000000     0.089900000000     0.743820000000    -0.517677   
O492     O      0.550840000000     0.101020000000     0.763560000000    -0.334189   
O493     O      0.000220000000     0.027070000000     0.706190000000    -0.465759   
O494     O      0.975010000000     0.020100000000     0.763950000000    -0.606039   
O495     O      0.501340000000     0.398040000000     0.789510000000    -0.36498    
O496     O      0.995730000000     0.437730000000     0.824210000000    -0.353974   
O497     O      0.628220000000     0.503080000000     0.734130000000    -0.367683   
O498     O      0.605260000000     0.997490000000     0.684470000000    -0.354474   
O499     O      0.581600000000     0.496160000000     0.833070000000    -0.355959   
O500     O      0.531910000000     0.982760000000     0.852940000000    -0.355569   
O501     O      0.558310000000     0.407610000000     0.698470000000    -0.371914   
O502     O      0.078650000000     0.461090000000     0.662990000000    -0.359637   
O503     O      0.570030000000     0.392250000000     0.766540000000    -0.513076   
O504     O      0.008960000000     0.384560000000     0.716920000000    -0.334051   
O505     O      0.622490000000     0.455570000000     0.788790000000    -0.340359   
O506     O      0.626150000000     0.029150000000     0.795270000000    -0.512637   
O507     O      0.545620000000     0.456270000000     0.789560000000    -0.60947    
O508     O      0.572460000000     0.460350000000     0.732010000000    -0.471009   
O509     O      0.981800000000     0.452790000000     0.758160000000    -0.47904    
O510     O      0.567790000000     0.028300000000     0.734120000000    -0.617852   
O511     O      0.011680000000     0.460710000000     0.695800000000    -0.626024   
O512     O      0.540760000000     0.022820000000     0.796990000000    -0.471203   
O513     O      0.600470000000     0.188920000000     0.517260000000    -0.368511   
O514     O      0.549900000000     0.157130000000     0.007150000000    -0.361742   
O515     O      0.527420000000     0.307530000000     0.608120000000    -0.368034   
O516     O      0.059630000000     0.356700000000     0.559950000000    -0.365013   
O517     O      0.495940000000     0.205540000000     0.600730000000    -0.373409   
O518     O      0.010990000000     0.181800000000     0.558130000000    -0.343543   
O519     O      0.623190000000     0.294780000000     0.525880000000    -0.358179   
O520     O      0.572010000000     0.338880000000     0.017510000000    -0.35521    
O521     O      0.621740000000     0.236930000000     0.567180000000    -0.339754   
O522     O      0.629380000000     0.240860000000     0.982550000000    -0.513763   
O523     O      0.556490000000     0.241810000000     0.619330000000    -0.511842   
O524     O      0.999730000000     0.279800000000     0.622290000000    -0.322109   
O525     O      0.548220000000     0.219630000000     0.551830000000    -0.468858   
O526     O      0.561440000000     0.281470000000     0.556620000000    -0.613982   
O527     O      0.026660000000     0.315100000000     0.920800000000    -0.360023   
O528     O      0.525150000000     0.348400000000     0.966230000000    -0.361646   
O529     O      0.914650000000     0.211030000000     0.992000000000    -0.35962    
O530     O      0.959420000000     0.195490000000     0.508960000000    -0.359626   
O531     O      0.927100000000     0.319660000000     0.002660000000    -0.364594   
O532     O      0.010750000000     0.371670000000     0.511080000000    -0.357364   
O533     O      0.014790000000     0.207840000000     0.913490000000    -0.364401   
O534     O      0.502340000000     0.166750000000     0.950970000000    -0.345683   
O535     O      0.982150000000     0.266180000000     0.896700000000    -0.511426   
O536     O      0.561380000000     0.257160000000     0.900930000000    -0.331431   
O537     O      0.914270000000     0.270770000000     0.947840000000    -0.344827   
O538     O      0.921990000000     0.299350000000     0.546340000000    -0.516943   
O539     O      0.982720000000     0.293140000000     0.967340000000    -0.613123   
O540     O      0.975810000000     0.229610000000     0.963210000000    -0.460401   
O541     O      0.556710000000     0.285940000000     0.976690000000    -0.480642   
O542     O      0.987980000000     0.246740000000     0.544640000000    -0.622114   
O543     O      0.547660000000     0.218080000000     0.972320000000    -0.622421   
O544     O      0.006310000000     0.312630000000     0.547250000000    -0.479691   
O545     O      0.850570000000     0.100120000000     0.498980000000    -0.369202   
O546     O      0.868250000000     0.025170000000     0.979210000000    -0.349584   
O547     O      0.723660000000     0.038500000000     0.602520000000    -0.358798   
O548     O      0.689000000000     0.537950000000     0.558520000000    -0.35565    
O549     O      0.835730000000     0.037640000000     0.609310000000    -0.361271   
O550     O      0.876370000000     0.526880000000     0.571710000000    -0.363543   
O551     O      0.739680000000     0.109290000000     0.489990000000    -0.35897    
O552     O      0.686670000000     0.071760000000     0.981610000000    -0.358116   
O553     O      0.793060000000     0.128900000000     0.536890000000    -0.341641   
O554     O      0.793540000000     0.105670000000     0.938830000000    -0.511241   
O555     O      0.780350000000     0.088950000000     0.604650000000    -0.5147     
O556     O      0.776800000000     0.509800000000     0.635900000000    -0.328513   
O557     O      0.819810000000     0.060670000000     0.547430000000    -0.470671   
O558     O      0.754220000000     0.065990000000     0.541940000000    -0.607991   
O559     O      0.705920000000     0.518520000000     0.892680000000    -0.36411    
O560     O      0.672700000000     0.020140000000     0.936400000000    -0.355026   
O561     O      0.790320000000     0.400550000000     0.975270000000    -0.368745   
O562     O      0.873390000000     0.464260000000     0.536660000000    -0.356985   
O563     O      0.684870000000     0.429560000000     0.986940000000    -0.361194   
O564     O      0.686930000000     0.481520000000     0.520110000000    -0.357204   
O565     O      0.811050000000     0.479490000000     0.888400000000    -0.361544   
O566     O      0.852770000000     0.967670000000     0.936610000000    -0.364977   
O567     O      0.741240000000     0.458220000000     0.877870000000    -0.515747   
O568     O      0.774080000000     0.024770000000     0.869140000000    -0.324727   
O569     O      0.728230000000     0.400040000000     0.941610000000    -0.33411    
O570     O      0.770660000000     0.419510000000     0.575940000000    -0.511036   
O571     O      0.719640000000     0.474190000000     0.946230000000    -0.610897   
O572     O      0.782250000000     0.457030000000     0.943080000000    -0.46889    
O573     O      0.739080000000     0.041660000000     0.944960000000    -0.473519   
O574     O      0.814200000000     0.490180000000     0.564590000000    -0.625383   
O575     O      0.807170000000     0.023810000000     0.944330000000    -0.621576   
O576     O      0.744110000000     0.496300000000     0.558350000000    -0.475668   
O577     O      0.931480000000     0.516050000000     0.192620000000    -0.359179   
O578     O      0.969890000000     0.009280000000     0.161420000000    -0.350673   
O579     O      0.003210000000     0.582290000000     0.310290000000    -0.353319   
O580     O      0.495670000000     0.534820000000     0.348400000000    -0.356647   
O581     O      0.012900000000     0.581990000000     0.198570000000    -0.344029   
O582     O      0.524970000000     0.537130000000     0.166670000000    -0.36504    
O583     O      0.910200000000     0.497530000000     0.294230000000    -0.365886   
O584     O      0.944290000000     0.997820000000     0.339890000000    -0.367784   
O585     O      0.886090000000     0.513540000000     0.239240000000    -0.313343   
O586     O      0.900410000000     0.959400000000     0.230680000000    -0.521324   
O587     O      0.964120000000     0.597730000000     0.251280000000    -0.513966   
O588     O      0.543320000000     0.603530000000     0.260790000000    -0.335747   
O589     O      0.977200000000     0.529920000000     0.218160000000    -0.455703   
O590     O      0.966890000000     0.529520000000     0.280250000000    -0.60885    
O591     O      0.497610000000     0.897140000000     0.306040000000    -0.365216   
O592     O      0.994310000000     0.941910000000     0.342630000000    -0.35648    
O593     O      0.610200000000     0.994560000000     0.219650000000    -0.368971   
O594     O      0.576800000000     0.495010000000     0.174870000000    -0.344056   
O595     O      0.593280000000     0.992630000000     0.326690000000    -0.357787   
O596     O      0.548070000000     0.490830000000     0.355560000000    -0.3561     
O597     O      0.520010000000     0.904020000000     0.201660000000    -0.369961   
O598     O      0.023370000000     0.952370000000     0.164380000000    -0.362864   
O599     O      0.556790000000     0.888400000000     0.262860000000    -0.512642   
O600     O      0.964870000000     0.886590000000     0.242020000000    -0.324702   
O601     O      0.614840000000     0.945020000000     0.274450000000    -0.342761   
O602     O      0.624690000000     0.531570000000     0.273920000000    -0.511742   
O603     O      0.543390000000     0.952060000000     0.294280000000    -0.608802   
O604     O      0.552850000000     0.955520000000     0.231640000000    -0.469415   
O605     O      0.962570000000     0.960190000000     0.283310000000    -0.47719    
O606     O      0.552430000000     0.528520000000     0.229730000000    -0.621586   
O607     O      0.973190000000     0.963780000000     0.214840000000    -0.621541   
O608     O      0.542040000000     0.527330000000     0.297110000000    -0.474027   
O609     O      0.597120000000     0.689730000000     0.018020000000    -0.367044   
O610     O      0.552300000000     0.660830000000     0.508110000000    -0.359618   
O611     O      0.494010000000     0.809380000000     0.089840000000    -0.368809   
O612     O      0.007980000000     0.848710000000     0.047920000000    -0.360847   
O613     O      0.481090000000     0.704960000000     0.089170000000    -0.372978   
O614     O      0.995310000000     0.668240000000     0.050990000000    -0.342151   
O615     O      0.610320000000     0.797610000000     0.022630000000    -0.3564     
O616     O      0.587370000000     0.838320000000     0.529100000000    -0.360995   
O617     O      0.604250000000     0.742190000000     0.070730000000    -0.342237   
O618     O      0.638920000000     0.740020000000     0.488560000000    -0.516084   
O619     O      0.535480000000     0.750460000000     0.110860000000    -0.512335   
O620     O      0.951250000000     0.762960000000     0.102230000000    -0.321128   
O621     O      0.537350000000     0.718830000000     0.045890000000    -0.468866   
O622     O      0.545520000000     0.782250000000     0.047660000000    -0.612091   
O623     O      0.047110000000     0.829470000000     0.419960000000    -0.360136   
O624     O      0.547750000000     0.854270000000     0.475030000000    -0.358649   
O625     O      0.928790000000     0.741850000000     0.494010000000    -0.364174   
O626     O      0.954820000000     0.670210000000     0.990010000000    -0.357755   
O627     O      0.958420000000     0.845990000000     0.507030000000    -0.365657   
O628     O      0.978740000000     0.852790000000     0.986170000000    -0.35771    
O629     O      0.021450000000     0.724620000000     0.410880000000    -0.364285   
O630     O      0.509200000000     0.676560000000     0.451150000000    -0.349154   
O631     O      0.997150000000     0.786530000000     0.397000000000    -0.509757   
O632     O      0.577590000000     0.763020000000     0.406920000000    -0.333123   
O633     O      0.933070000000     0.802000000000     0.455650000000    -0.342847   
O634     O      0.893950000000     0.770360000000     0.008140000000    -0.514627   
O635     O      0.006680000000     0.812080000000     0.468750000000    -0.614102   
O636     O      0.989840000000     0.750860000000     0.464340000000    -0.458873   
O637     O      0.571240000000     0.789700000000     0.483250000000    -0.479011   
O638     O      0.964790000000     0.727690000000     0.026560000000    -0.621224   
O639     O      0.557140000000     0.723020000000     0.475540000000    -0.622213   
O640     O      0.972350000000     0.795620000000     0.027420000000    -0.476529   
O641     O      0.840550000000     0.573950000000     0.969100000000    -0.371333   
O642     O      0.884890000000     0.560010000000     0.517900000000    -0.358243   
O643     O      0.713340000000     0.510410000000     0.071340000000    -0.356352   
O644     O      0.674980000000     0.025490000000     0.035070000000    -0.354639   
O645     O      0.826090000000     0.492360000000     0.063710000000    -0.352841   
O646     O      0.858580000000     0.981050000000     0.030140000000    -0.36498    
O647     O      0.734000000000     0.601670000000     0.976810000000    -0.360342   
O648     O      0.697710000000     0.577400000000     0.499830000000    -0.356716   
O649     O      0.793970000000     0.599720000000     0.020560000000    -0.340504   
O650     O      0.804030000000     0.620610000000     0.459100000000    -0.516522   
O651     O      0.778050000000     0.546870000000     0.080210000000    -0.513599   
O652     O      0.764460000000     0.975360000000     0.100980000000    -0.333241   
O653     O      0.807440000000     0.528440000000     0.012070000000    -0.468419   
O654     O      0.744100000000     0.545080000000     0.015600000000    -0.604683   
O655     O      0.736950000000     0.004600000000     0.427310000000    -0.366402   
O656     O      0.695590000000     0.518010000000     0.461380000000    -0.350516   
O657     O      0.830450000000     0.928740000000     0.547100000000    -0.373985   
O658     O      0.840930000000     0.929050000000     0.990080000000    -0.352165   
O659     O      0.720780000000     0.939040000000     0.538720000000    -0.364483   
O660     O      0.660240000000     0.977250000000     0.989160000000    -0.357835   
O661     O      0.846410000000     0.990020000000     0.438980000000    -0.372359   
O662     O      0.882890000000     0.499450000000     0.479480000000    -0.362375   
O663     O      0.784970000000     0.950470000000     0.431790000000    -0.515405   
O664     O      0.800380000000     0.532660000000     0.401270000000    -0.329062   
O665     O      0.775910000000     0.909420000000     0.501800000000    -0.341054   
O666     O      0.735030000000     0.896870000000     0.031920000000    -0.510692   
O667     O      0.751190000000     0.978060000000     0.490590000000    -0.614913   
O668     O      0.816500000000     0.972290000000     0.495970000000    -0.476287   
O669     O      0.757440000000     0.552240000000     0.471530000000    -0.475427   
O670     O      0.789910000000     0.959860000000     0.024580000000    -0.623236   
O671     O      0.827630000000     0.545920000000     0.477720000000    -0.625146   
O672     O      0.722230000000     0.977730000000     0.025510000000    -0.476805   
O673     O      0.965890000000     0.498300000000     0.659290000000    -0.370762   
O674     O      0.017260000000     0.998510000000     0.644200000000    -0.357864   
O675     O      0.999150000000     0.579320000000     0.803840000000    -0.354621   
O676     O      0.481280000000     0.532840000000     0.833840000000    -0.355915   
O677     O      0.024870000000     0.588230000000     0.694540000000    -0.348678   
O678     O      0.552480000000     0.544440000000     0.663400000000    -0.360943   
O679     O      0.918790000000     0.484120000000     0.754240000000    -0.362794   
O680     O      0.943100000000     0.980070000000     0.810440000000    -0.359157   
O681     O      0.919990000000     0.525500000000     0.702260000000    -0.328089   
O682     O      0.929540000000     0.941860000000     0.699380000000    -0.517407   
O683     O      0.967660000000     0.595990000000     0.740530000000    -0.518319   
O684     O      0.548440000000     0.606140000000     0.759520000000    -0.335107   
O685     O      0.000020000000     0.532520000000     0.702980000000    -0.46889    
O686     O      0.973110000000     0.525770000000     0.759840000000    -0.609202   
O687     O      0.501520000000     0.892960000000     0.790790000000    -0.365784   
O688     O      0.999240000000     0.931020000000     0.826180000000    -0.353339   
O689     O      0.628910000000     0.998090000000     0.734270000000    -0.36869    
O690     O      0.605920000000     0.501760000000     0.683760000000    -0.354032   
O691     O      0.584650000000     0.990030000000     0.834210000000    -0.357275   
O692     O      0.528400000000     0.488820000000     0.850510000000    -0.354335   
O693     O      0.555260000000     0.902730000000     0.698520000000    -0.3724     
O694     O      0.076960000000     0.955230000000     0.663500000000    -0.360502   
O695     O      0.570430000000     0.887360000000     0.766690000000    -0.512601   
O696     O      0.010910000000     0.877600000000     0.719860000000    -0.32677    
O697     O      0.623680000000     0.948670000000     0.788060000000    -0.341204   
O698     O      0.622990000000     0.536260000000     0.794480000000    -0.51647    
O699     O      0.547260000000     0.950730000000     0.791090000000    -0.608752   
O700     O      0.572620000000     0.955130000000     0.732890000000    -0.470501   
O701     O      0.983300000000     0.947250000000     0.761420000000    -0.475844   
O702     O      0.566780000000     0.533450000000     0.732120000000    -0.62095    
O703     O      0.011100000000     0.955310000000     0.698450000000    -0.624947   
O704     O      0.537980000000     0.528210000000     0.794420000000    -0.474535   
O705     O      0.600130000000     0.689030000000     0.516260000000    -0.368319   
O706     O      0.551530000000     0.657830000000     0.011190000000    -0.36188    
O707     O      0.520900000000     0.805610000000     0.604270000000    -0.36749    
O708     O      0.054270000000     0.854820000000     0.558130000000    -0.364219   
O709     O      0.490630000000     0.703490000000     0.593270000000    -0.373174   
O710     O      0.006280000000     0.679970000000     0.549510000000    -0.344948   
O711     O      0.621790000000     0.794790000000     0.528540000000    -0.357999   
O712     O      0.574060000000     0.839540000000     0.018070000000    -0.355099   
O713     O      0.618900000000     0.736060000000     0.567250000000    -0.338359   
O714     O      0.635080000000     0.740480000000     0.995260000000    -0.515445   
O715     O      0.549400000000     0.739780000000     0.616230000000    -0.512152   
O716     O      0.991090000000     0.776530000000     0.615100000000    -0.321987   
O717     O      0.545890000000     0.719000000000     0.547760000000    -0.469447   
O718     O      0.558260000000     0.780630000000     0.554480000000    -0.613136   
O719     O      0.040130000000     0.811950000000     0.915930000000    -0.359824   
O720     O      0.537540000000     0.846900000000     0.960590000000    -0.36061    
O721     O      0.919490000000     0.711790000000     0.979340000000    -0.359818   
O722     O      0.958680000000     0.695200000000     0.493230000000    -0.360647   
O723     O      0.933310000000     0.820820000000     0.978720000000    -0.367574   
O724     O      0.008920000000     0.870790000000     0.507500000000    -0.356408   
O725     O      0.030040000000     0.704130000000     0.912720000000    -0.365604   
O726     O      0.509520000000     0.665860000000     0.949910000000    -0.344736   
O727     O      0.000320000000     0.761060000000     0.888700000000    -0.512189   
O728     O      0.579430000000     0.752990000000     0.904880000000    -0.332994   
O729     O      0.923620000000     0.766490000000     0.932110000000    -0.341813   
O730     O      0.918340000000     0.796100000000     0.535820000000    -0.517803   
O731     O      0.991570000000     0.791910000000     0.957700000000    -0.613042   
O732     O      0.984400000000     0.728830000000     0.956210000000    -0.459033   
O733     O      0.564170000000     0.784960000000     0.977160000000    -0.480411   
O734     O      0.984100000000     0.744910000000     0.536130000000    -0.622022   
O735     O      0.554700000000     0.716970000000     0.974940000000    -0.622705   
O736     O      0.002530000000     0.810920000000     0.541370000000    -0.479128   
O737     O      0.850800000000     0.603110000000     0.510320000000    -0.366468   
O738     O      0.866820000000     0.525420000000     0.971590000000    -0.352094   
O739     O      0.723670000000     0.537990000000     0.601960000000    -0.36134    
O740     O      0.688660000000     0.037270000000     0.559350000000    -0.354231   
O741     O      0.836120000000     0.536760000000     0.608930000000    -0.360283   
O742     O      0.876050000000     0.027010000000     0.572340000000    -0.364431   
O743     O      0.740790000000     0.612340000000     0.492870000000    -0.358468   
O744     O      0.686120000000     0.572990000000     0.982730000000    -0.356841   
O745     O      0.791140000000     0.632220000000     0.537890000000    -0.337152   
O746     O      0.791410000000     0.609120000000     0.939480000000    -0.510515   
O747     O      0.780260000000     0.586070000000     0.607990000000    -0.515997   
O748     O      0.776930000000     0.014980000000     0.637600000000    -0.321514   
O749     O      0.819940000000     0.560680000000     0.548670000000    -0.469299   
O750     O      0.754720000000     0.566590000000     0.543070000000    -0.608881   
O751     O      0.710130000000     0.012720000000     0.895850000000    -0.36153    
O752     O      0.669860000000     0.523930000000     0.934670000000    -0.356734   
O753     O      0.792890000000     0.900270000000     0.994040000000    -0.373445   
O754     O      0.873300000000     0.963460000000     0.538180000000    -0.358331   
O755     O      0.686620000000     0.929010000000     0.994120000000    -0.360878   
O756     O      0.686410000000     0.979980000000     0.523750000000    -0.359877   
O757     O      0.815410000000     0.975200000000     0.896130000000    -0.362856   
O758     O      0.849780000000     0.470230000000     0.927290000000    -0.362418   
O759     O      0.745900000000     0.950350000000     0.887090000000    -0.513826   
O760     O      0.770250000000     0.533130000000     0.865520000000    -0.329619   
O761     O      0.734620000000     0.898440000000     0.950330000000    -0.338962   
O762     O      0.771270000000     0.921090000000     0.582180000000    -0.51199    
O763     O      0.722200000000     0.971320000000     0.952490000000    -0.610773   
O764     O      0.785290000000     0.954230000000     0.951920000000    -0.470552   
O765     O      0.736980000000     0.544910000000     0.942630000000    -0.475198   
O766     O      0.814060000000     0.990700000000     0.566570000000    -0.628572   
O767     O      0.804840000000     0.526490000000     0.939020000000    -0.624758   
O768     O      0.743950000000     0.996480000000     0.560570000000    -0.478986   
Zr1      Zr     0.445300000000     0.483080000000     0.248070000000     1.28126    
Zr2      Zr     0.012120000000     0.063500000000     0.260370000000     1.28284    
Zr3      Zr     0.515430000000     0.422570000000     0.255990000000     1.29823    
Zr4      Zr     0.075070000000     0.994370000000     0.267000000000     1.28792    
Zr5      Zr     0.018940000000     0.494200000000     0.195330000000     1.26717    
Zr6      Zr     0.502160000000     0.986500000000     0.319160000000     1.26158    
Zr7      Zr     0.099570000000     0.252680000000     0.506700000000     1.29347    
Zr8      Zr     0.503050000000     0.251100000000     0.072780000000     1.30497    
Zr9      Zr     0.034370000000     0.273230000000     0.442810000000     1.30009    
Zr10     Zr     0.443020000000     0.261810000000     0.002120000000     1.29557    
Zr11     Zr     0.509330000000     0.201550000000     0.511030000000     1.2598     
Zr12     Zr     0.018440000000     0.315010000000     0.008980000000     1.27823    
Zr13     Zr     0.291200000000     0.072180000000     0.497110000000     1.29467    
Zr14     Zr     0.267970000000     0.501880000000     0.047770000000     1.28282    
Zr15     Zr     0.283610000000     0.990580000000     0.455170000000     1.29139    
Zr16     Zr     0.245000000000     0.437750000000     0.985270000000     1.29557    
Zr17     Zr     0.339910000000     0.502370000000     0.524420000000     1.27407    
Zr18     Zr     0.205680000000     0.017450000000     0.985660000000     1.26957    
Zr19     Zr     0.459800000000     0.485290000000     0.719810000000     1.30305    
Zr20     Zr     0.018130000000     0.057720000000     0.751690000000     1.28281    
Zr21     Zr     0.526840000000     0.425520000000     0.744620000000     1.29804    
Zr22     Zr     0.088910000000     0.000130000000     0.773640000000     1.30244    
Zr23     Zr     0.051200000000     0.504180000000     0.690810000000     1.27759    
Zr24     Zr     0.498530000000     0.982080000000     0.805000000000     1.25851    
Zr25     Zr     0.079090000000     0.247420000000     0.011850000000     1.29068    
Zr26     Zr     0.514440000000     0.257000000000     0.581340000000     1.3025     
Zr27     Zr     0.021010000000     0.259230000000     0.939890000000     1.29888    
Zr28     Zr     0.454650000000     0.274410000000     0.511750000000     1.29025    
Zr29     Zr     0.503670000000     0.193800000000     0.003880000000     1.26201    
Zr30     Zr     0.050130000000     0.328230000000     0.510740000000     1.27985    
Zr31     Zr     0.283580000000     0.064610000000     0.979030000000     1.29138    
Zr32     Zr     0.274910000000     0.529320000000     0.582030000000     1.29266    
Zr33     Zr     0.264760000000     0.996520000000     0.919570000000     1.28319    
Zr34     Zr     0.265980000000     0.450200000000     0.535950000000     1.29945    
Zr35     Zr     0.323480000000     0.484660000000     0.978630000000     1.27351    
Zr36     Zr     0.217780000000     0.019880000000     0.511290000000     1.27132    
Zr37     Zr     0.443440000000     0.988110000000     0.250780000000     1.27271    
Zr38     Zr     0.009620000000     0.560680000000     0.255000000000     1.28116    
Zr39     Zr     0.510100000000     0.923590000000     0.255790000000     1.29751    
Zr40     Zr     0.076340000000     0.495630000000     0.265630000000     1.29594    
Zr41     Zr     0.017080000000     0.999560000000     0.197450000000     1.25882    
Zr42     Zr     0.503400000000     0.487270000000     0.316890000000     1.26608    
Zr43     Zr     0.098120000000     0.751920000000     0.505000000000     1.29344    
Zr44     Zr     0.497010000000     0.755770000000     0.067100000000     1.30377    
Zr45     Zr     0.037150000000     0.773870000000     0.437840000000     1.29985    
Zr46     Zr     0.447370000000     0.762610000000     0.989010000000     1.28585    
Zr47     Zr     0.509820000000     0.701590000000     0.504370000000     1.2616     
Zr48     Zr     0.021910000000     0.816290000000     0.001920000000     1.27987    
Zr49     Zr     0.291790000000     0.575110000000     0.500040000000     1.29479    
Zr50     Zr     0.267030000000     0.005680000000     0.052400000000     1.2944     
Zr51     Zr     0.284230000000     0.495810000000     0.454020000000     1.29594    
Zr52     Zr     0.246300000000     0.937880000000     0.992840000000     1.29557    
Zr53     Zr     0.339950000000     0.000990000000     0.524670000000     1.28279    
Zr54     Zr     0.204680000000     0.517760000000     0.983460000000     1.26208    
Zr55     Zr     0.459790000000     0.981920000000     0.723970000000     1.2938     
Zr56     Zr     0.016310000000     0.563650000000     0.748750000000     1.27976    
Zr57     Zr     0.526720000000     0.920900000000     0.746230000000     1.29939    
Zr58     Zr     0.086700000000     0.506670000000     0.773060000000     1.2918     
Zr59     Zr     0.050830000000     0.998440000000     0.692420000000     1.26891    
Zr60     Zr     0.496020000000     0.487070000000     0.801800000000     1.26463    
Zr61     Zr     0.080850000000     0.748570000000     0.015790000000     1.29148    
Zr62     Zr     0.509900000000     0.755440000000     0.575940000000     1.30083    
Zr63     Zr     0.032750000000     0.756800000000     0.936910000000     1.30068    
Zr64     Zr     0.454570000000     0.773970000000     0.503500000000     1.28967    
Zr65     Zr     0.506450000000     0.694740000000     0.001800000000     1.26227    
Zr66     Zr     0.048480000000     0.827430000000     0.507790000000     1.27737    
Zr67     Zr     0.282720000000     0.564920000000     0.977210000000     1.28921    
Zr68     Zr     0.275140000000     0.030320000000     0.581270000000     1.29705    
Zr69     Zr     0.261420000000     0.500400000000     0.914670000000     1.29223    
Zr70     Zr     0.266180000000     0.949010000000     0.539200000000     1.29822    
Zr71     Zr     0.324740000000     0.984650000000     0.986000000000     1.26724    
Zr72     Zr     0.218020000000     0.522450000000     0.511160000000     1.26345    
Zr73     Zr     0.941670000000     0.491750000000     0.244360000000     1.28291    
Zr74     Zr     0.511430000000     0.056630000000     0.263010000000     1.28311    
Zr75     Zr     0.007970000000     0.427440000000     0.253450000000     1.29693    
Zr76     Zr     0.578490000000     0.991260000000     0.269570000000     1.28659    
Zr77     Zr     0.521450000000     0.490000000000     0.197940000000     1.26668    
Zr78     Zr     0.998250000000     0.993800000000     0.315800000000     1.26406    
Zr79     Zr     0.588800000000     0.246660000000     0.519340000000     1.29294    
Zr80     Zr     0.001820000000     0.252910000000     0.070310000000     1.30317    
Zr81     Zr     0.529120000000     0.265390000000     0.450050000000     1.29978    
Zr82     Zr     0.943630000000     0.262980000000     0.998110000000     1.28632    
Zr83     Zr     0.016930000000     0.212080000000     0.507210000000     1.25667    
Zr84     Zr     0.518150000000     0.313690000000     0.011620000000     1.27863    
Zr85     Zr     0.792550000000     0.082770000000     0.501210000000     1.29179    
Zr86     Zr     0.767830000000     0.501630000000     0.045770000000     1.28337    
Zr87     Zr     0.789770000000     0.003140000000     0.454960000000     1.30943    
Zr88     Zr     0.744700000000     0.437560000000     0.983280000000     1.2957     
Zr89     Zr     0.847380000000     0.515260000000     0.523230000000     1.2754     
Zr90     Zr     0.704760000000     0.016360000000     0.985480000000     1.26829    
Zr91     Zr     0.964250000000     0.488660000000     0.716490000000     1.29896    
Zr92     Zr     0.518180000000     0.053190000000     0.753250000000     1.28381    
Zr93     Zr     0.034260000000     0.431940000000     0.740370000000     1.29505    
Zr94     Zr     0.585530000000     0.991970000000     0.775350000000     1.28441    
Zr95     Zr     0.547060000000     0.495340000000     0.692410000000     1.2744     
Zr96     Zr     0.002500000000     0.984520000000     0.801930000000     1.25715    
Zr97     Zr     0.578760000000     0.245970000000     0.012500000000     1.2909     
Zr98     Zr     0.032840000000     0.269190000000     0.574830000000     1.30231    
Zr99     Zr     0.518830000000     0.258400000000     0.942090000000     1.29941    
Zr100    Zr     0.967490000000     0.288390000000     0.510750000000     1.29151    
Zr101    Zr     0.004340000000     0.195150000000     0.001790000000     1.26251    
Zr102    Zr     0.533940000000     0.318700000000     0.520630000000     1.28437    
Zr103    Zr     0.782130000000     0.064300000000     0.977450000000     1.29153    
Zr104    Zr     0.781130000000     0.534020000000     0.583080000000     1.29125    
Zr105    Zr     0.762980000000     0.995840000000     0.918540000000     1.28409    
Zr106    Zr     0.778590000000     0.457040000000     0.532840000000     1.30214    
Zr107    Zr     0.822710000000     0.485110000000     0.975880000000     1.27239    
Zr108    Zr     0.723430000000     0.024490000000     0.513570000000     1.27021    
Zr109    Zr     0.940180000000     0.999100000000     0.247040000000     1.27347    
Zr110    Zr     0.509270000000     0.555590000000     0.257950000000     1.28132    
Zr111    Zr     0.002670000000     0.930730000000     0.252330000000     1.29625    
Zr112    Zr     0.579750000000     0.494250000000     0.267600000000     1.29487    
Zr113    Zr     0.519600000000     0.992830000000     0.200420000000     1.25814    
Zr114    Zr     0.999160000000     0.493060000000     0.313790000000     1.26905    
Zr115    Zr     0.588290000000     0.746790000000     0.518200000000     1.29217    
Zr116    Zr     0.996570000000     0.758320000000     0.064200000000     1.30281    
Zr117    Zr     0.533020000000     0.766510000000     0.445890000000     1.29916    
Zr118    Zr     0.948230000000     0.763970000000     0.985230000000     1.28577    
Zr119    Zr     0.015730000000     0.711440000000     0.499710000000     1.25815    
Zr120    Zr     0.521390000000     0.814630000000     0.005270000000     1.27991    
Zr121    Zr     0.793370000000     0.585220000000     0.503450000000     1.29336    
Zr122    Zr     0.767300000000     0.005540000000     0.051240000000     1.29515    
Zr123    Zr     0.790810000000     0.508130000000     0.453290000000     1.29739    
Zr124    Zr     0.746540000000     0.937270000000     0.992290000000     1.29548    
Zr125    Zr     0.846970000000     0.014020000000     0.523970000000     1.28301    
Zr126    Zr     0.703620000000     0.517250000000     0.982350000000     1.26142    
Zr127    Zr     0.964480000000     0.983450000000     0.720620000000     1.2908     
Zr128    Zr     0.516310000000     0.557860000000     0.749780000000     1.2807     
Zr129    Zr     0.035050000000     0.926130000000     0.742060000000     1.29684    
Zr130    Zr     0.583780000000     0.497820000000     0.774270000000     1.2925     
Zr131    Zr     0.546570000000     0.990940000000     0.694440000000     1.26833    
Zr132    Zr     0.999460000000     0.490590000000     0.798900000000     1.2642     
Zr133    Zr     0.580430000000     0.746610000000     0.017370000000     1.29125    
Zr134    Zr     0.027040000000     0.766750000000     0.569440000000     1.30084    
Zr135    Zr     0.531070000000     0.755960000000     0.939390000000     1.30145    
Zr136    Zr     0.965990000000     0.787610000000     0.502270000000     1.29227    
Zr137    Zr     0.007220000000     0.696470000000     0.999770000000     1.2533     
Zr138    Zr     0.533000000000     0.818550000000     0.517630000000     1.28192    
Zr139    Zr     0.781270000000     0.565020000000     0.975330000000     1.28941    
Zr140    Zr     0.781060000000     0.035390000000     0.583190000000     1.29583    
Zr141    Zr     0.759630000000     0.500640000000     0.912770000000     1.2924     
Zr142    Zr     0.778200000000     0.956030000000     0.536790000000     1.30052    
Zr143    Zr     0.824320000000     0.984850000000     0.984020000000     1.26603    
Zr144    Zr     0.724040000000     0.526570000000     0.512560000000     1.26334    


