data_structure

_audit_creation_method RASPA-1.0
_audit_creation_date 2023-5-19
_audit_author_name 'Poobodin Mano'

_cell_length_a    20.62
_cell_length_b    20.5976
_cell_length_c    20.5519
_cell_angle_alpha 90
_cell_angle_beta  90
_cell_angle_gamma 90
_cell_volume      8728.85

_symmetry_cell_setting          triclinic
_symmetry_space_group_name_Hall 'P 1'
_symmetry_space_group_name_H-M  'P 1'
_symmetry_Int_Tables_number     1

_symmetry_equiv_pos_as_xyz 'x,y,z'

loop_
_atom_site_label
_atom_site_type_symbol
_atom_site_fract_x
_atom_site_fract_y
_atom_site_fract_z
_atom_site_charge
C1       C      0.977320000000     0.150250000000     0.156020000000     0.509553   
C2       C      0.003800000000     0.839510000000     0.154200000000     0.512691   
C3       C      0.835220000000     0.005620000000     0.151870000000     0.513466   
C4       C      0.146460000000     0.000490000000     0.157170000000     0.502095   
C5       C      0.989000000000     0.841770000000     0.843300000000     0.498325   
C6       C      0.013620000000     0.153060000000     0.844850000000     0.522156   
C7       C      0.842560000000     0.838200000000     0.989740000000     0.494225   
C8       C      0.154890000000     0.846690000000     0.006380000000     0.523635   
C9       C      0.145320000000     0.156920000000     0.994550000000     0.514825   
C10      C      0.836560000000     0.149590000000     0.993130000000     0.514037   
C11      C      0.841590000000     0.989580000000     0.839780000000     0.504981   
C12      C      0.153140000000     0.001060000000     0.845780000000     0.524008   
C13      C      0.991020000000     0.339660000000     0.347260000000     0.496578   
C14      C      0.015770000000     0.649780000000     0.344410000000     0.502639   
C15      C      0.841940000000     0.483690000000     0.345760000000     0.513016   
C16      C      0.151870000000     0.488450000000     0.345400000000     0.514855   
C17      C      0.005230000000     0.654400000000     0.655150000000     0.508161   
C18      C      0.998950000000     0.341830000000     0.659480000000     0.508507   
C19      C      0.846590000000     0.656180000000     0.504150000000     0.503352   
C20      C      0.157630000000     0.648660000000     0.488340000000     0.511305   
C21      C      0.149790000000     0.337080000000     0.511500000000     0.511677   
C22      C      0.839690000000     0.343050000000     0.500300000000     0.505502   
C23      C      0.841630000000     0.508740000000     0.657110000000     0.502188   
C24      C      0.154410000000     0.483820000000     0.657710000000     0.502801   
C25      C      0.648050000000     0.984940000000     0.340490000000     0.503557   
C26      C      0.336630000000     0.991930000000     0.347280000000     0.516603   
C27      C      0.500900000000     0.836420000000     0.346860000000     0.506351   
C28      C      0.485250000000     0.146260000000     0.338950000000     0.515347   
C29      C      0.345660000000     0.004450000000     0.658820000000     0.497437   
C30      C      0.657010000000     0.014670000000     0.650320000000     0.503951   
C31      C      0.344110000000     0.837750000000     0.513600000000     0.488224   
C32      C      0.338910000000     0.149880000000     0.487670000000     0.500408   
C33      C      0.648700000000     0.154690000000     0.489460000000     0.512801   
C34      C      0.655350000000     0.843060000000     0.487500000000     0.502969   
C35      C      0.502630000000     0.845350000000     0.660430000000     0.506926   
C36      C      0.512660000000     0.156630000000     0.650220000000     0.501983   
C37      C      0.336930000000     0.345620000000     0.006290000000     0.502956   
C38      C      0.344420000000     0.655700000000     0.004350000000     0.511341   
C39      C      0.340880000000     0.497350000000     0.156450000000     0.512267   
C40      C      0.341950000000     0.510960000000     0.844360000000     0.513551   
C41      C      0.656720000000     0.647250000000     0.007200000000     0.507061   
C42      C      0.645300000000     0.334970000000     0.996040000000     0.525839   
C43      C      0.515510000000     0.648680000000     0.158380000000     0.508984   
C44      C      0.486010000000     0.654810000000     0.847000000000     0.505025   
C45      C      0.495530000000     0.345310000000     0.840260000000     0.509125   
C46      C      0.474980000000     0.338300000000     0.152160000000     0.505836   
C47      C      0.652660000000     0.494940000000     0.155900000000     0.493369   
C48      C      0.651870000000     0.484680000000     0.843460000000     0.500399   
C49      C      0.455270000000     0.307400000000     0.267140000000    -0.00473568 
C50      C      0.444490000000     0.224820000000     0.179500000000    -0.05189    
C51      C      0.496590000000     0.260980000000     0.307210000000    -0.000873384
C52      C      0.482500000000     0.174960000000     0.220220000000     0.16697    
C53      C      0.491730000000     0.719780000000     0.317400000000    -0.00686344 
C54      C      0.497810000000     0.806070000000     0.230580000000    -0.0532593  
C55      C      0.534140000000     0.675690000000     0.274760000000    -0.00150899 
C56      C      0.544280000000     0.763190000000     0.192030000000     0.169475   
C57      C      0.469020000000     0.687370000000     0.731990000000    -0.00499028 
C58      C      0.467920000000     0.770950000000     0.820020000000    -0.0543828  
C59      C      0.514230000000     0.730040000000     0.691710000000    -0.00151768 
C60      C      0.512010000000     0.815170000000     0.779250000000     0.168111   
C61      C      0.533600000000     0.188610000000     0.764990000000    -0.00543975 
C62      C      0.528490000000     0.273050000000     0.678190000000    -0.0522114  
C63      C      0.489500000000     0.229610000000     0.808470000000    -0.00175765 
C64      C      0.484730000000     0.315180000000     0.721390000000     0.169951   
C65      C      0.807970000000     0.227670000000     0.512020000000    -0.00395074 
C66      C      0.723510000000     0.315440000000     0.512510000000    -0.0553139  
C67      C      0.763240000000     0.185150000000     0.470960000000    -0.00142536 
C68      C      0.678740000000     0.272300000000     0.471540000000     0.16896    
C69      C      0.686850000000     0.727250000000     0.475010000000    -0.00516477 
C70      C      0.770650000000     0.814510000000     0.467230000000    -0.0525395  
C71      C      0.731750000000     0.687840000000     0.519080000000    -0.00320946 
C72      C      0.816540000000     0.774960000000     0.510820000000     0.167265   
C73      C      0.305970000000     0.265260000000     0.473520000000    -0.00607111 
C74      C      0.221860000000     0.177860000000     0.477930000000    -0.0544869  
C75      C      0.265740000000     0.306180000000     0.520880000000    -0.00192869 
C76      C      0.181660000000     0.218870000000     0.525510000000     0.170463   
C77      C      0.314070000000     0.721030000000     0.526570000000    -0.00850039 
C78      C      0.227910000000     0.806550000000     0.519880000000    -0.0555997  
C79      C      0.274480000000     0.677920000000     0.479990000000    -0.00112318 
C80      C      0.191500000000     0.765470000000     0.469660000000     0.167718   
C81      C      0.768660000000     0.507340000000     0.186300000000    -0.00803915 
C82      C      0.682230000000     0.505300000000     0.272360000000    -0.0547243  
C83      C      0.812220000000     0.465730000000     0.230130000000    -0.000386415
C84      C      0.725280000000     0.461630000000     0.314470000000     0.168188   
C85      C      0.310740000000     0.511920000000     0.272270000000    -0.00523326 
C86      C      0.225250000000     0.510280000000     0.185320000000    -0.0517043  
C87      C      0.266860000000     0.470950000000     0.315890000000    -0.000784134
C88      C      0.182630000000     0.467540000000     0.228380000000     0.168554   
C89      C      0.185440000000     0.472730000000     0.774400000000    -0.00727499 
C90      C      0.270710000000     0.473690000000     0.687700000000    -0.0536185  
C91      C      0.225620000000     0.521170000000     0.814350000000    -0.00262567 
C92      C      0.309040000000     0.524480000000     0.726310000000     0.167093   
C93      C      0.767810000000     0.469560000000     0.812730000000    -0.00676327 
C94      C      0.682250000000     0.477320000000     0.726670000000    -0.0549376  
C95      C      0.810820000000     0.516360000000     0.773760000000    -0.00234456 
C96      C      0.724220000000     0.526180000000     0.689300000000     0.168398   
C97      C      0.727390000000     0.805610000000     0.977010000000    -0.00646504 
C98      C      0.815250000000     0.721760000000     0.974420000000    -0.054632   
C99      C      0.687760000000     0.762320000000     0.022330000000    -0.0011456  
C100     C      0.774990000000     0.677740000000     0.019190000000     0.168399   
C101     C      0.805740000000     0.264340000000     0.977920000000    -0.00274308 
C102     C      0.723280000000     0.176280000000     0.964590000000    -0.0553262  
C103     C      0.758020000000     0.303380000000     0.018110000000     0.000466869
C104     C      0.673270000000     0.216560000000     0.001950000000     0.172159   
C105     C      0.229950000000     0.685480000000     0.022650000000    -0.00128808 
C106     C      0.317210000000     0.768980000000     0.032530000000    -0.0543811  
C107     C      0.186950000000     0.733620000000     0.987060000000    -0.00127458 
C108     C      0.273140000000     0.819930000000     0.000760000000     0.170975   
C109     C      0.304560000000     0.230570000000     0.021670000000    -0.00618822 
C110     C      0.220670000000     0.318290000000     0.021950000000    -0.0544586  
C111     C      0.260270000000     0.188110000000     0.979920000000    -0.00248665 
C112     C      0.175290000000     0.275210000000     0.981170000000     0.166932   
C113     C      0.773550000000     0.027900000000     0.680450000000    -0.0042838  
C114     C      0.687550000000     0.029740000000     0.766070000000    -0.0513829  
C115     C      0.813500000000     0.980710000000     0.722420000000    -0.00413613 
C116     C      0.724330000000     0.978560000000     0.805040000000     0.170612   
C117     C      0.316180000000     0.024900000000     0.774260000000    -0.00640452 
C118     C      0.231550000000     0.026740000000     0.687320000000    -0.0533514  
C119     C      0.269290000000     0.988330000000     0.819090000000    -0.000844213
C120     C      0.186420000000     0.985840000000     0.729220000000     0.168752   
C121     C      0.261110000000     0.018550000000     0.188430000000    -0.00383038 
C122     C      0.174370000000     0.014930000000     0.273570000000    -0.0518305  
C123     C      0.305410000000     0.978300000000     0.232100000000     4.87485e-05
C124     C      0.218960000000     0.975170000000     0.317930000000     0.170184   
C125     C      0.763470000000     0.971870000000     0.308330000000    -0.00720047 
C126     C      0.676310000000     0.973100000000     0.223490000000    -0.0555517  
C127     C      0.803650000000     0.018990000000     0.267430000000    -0.000565197
C128     C      0.716980000000     0.020200000000     0.182340000000     0.167992   
C129     C      0.991530000000     0.311500000000     0.776220000000    -0.00866412 
C130     C      0.990600000000     0.225720000000     0.688960000000    -0.0542036  
C131     C      0.036140000000     0.268190000000     0.817130000000     0.00085024 
C132     C      0.038450000000     0.185560000000     0.728800000000     0.169264   
C133     C      0.973610000000     0.726100000000     0.812880000000    -0.006976   
C134     C      0.973480000000     0.812560000000     0.727310000000    -0.0534631  
C135     C      0.018870000000     0.684970000000     0.770830000000     6.69393e-05
C136     C      0.020140000000     0.772300000000     0.686040000000     0.17259    
C137     C      0.036990000000     0.764810000000     0.315000000000    -0.00507688 
C138     C      0.043120000000     0.678640000000     0.230550000000    -0.0544989  
C139     C      0.997230000000     0.807960000000     0.269640000000    -0.00279454 
C140     C      0.005060000000     0.721080000000     0.182450000000     0.169657   
C141     C      0.002610000000     0.308500000000     0.231150000000    -0.00442682 
C142     C      0.995300000000     0.222940000000     0.318080000000    -0.0567582  
C143     C      0.961400000000     0.265850000000     0.186150000000    -0.00386935 
C144     C      0.952950000000     0.181560000000     0.272760000000     0.168471   
Eu1      Eu     0.991110000000     0.995440000000     0.114490000000     3.40337    
Eu2      Eu     0.997000000000     0.881570000000     0.999060000000     3.05415    
Eu3      Eu     0.991280000000     0.112000000000     0.998440000000     3.51592    
Eu4      Eu     0.879210000000     0.994820000000     0.996720000000     3.07619    
Eu5      Eu     0.109160000000     0.999160000000     0.000370000000     3.55864    
Eu6      Eu     0.996600000000     0.997170000000     0.883160000000     3.10724    
Eu7      Eu     0.996840000000     0.495460000000     0.386390000000     3.45199    
Eu8      Eu     0.001270000000     0.611290000000     0.499810000000     3.05747    
Eu9      Eu     0.994650000000     0.381360000000     0.504180000000     3.55133    
Eu10     Eu     0.882710000000     0.499030000000     0.501540000000     3.03962    
Eu11     Eu     0.113470000000     0.494110000000     0.502440000000     3.49246    
Eu12     Eu     0.998520000000     0.497690000000     0.618000000000     3.03992    
Eu13     Eu     0.492900000000     0.991610000000     0.384240000000     3.53688    
Eu14     Eu     0.381780000000     0.994650000000     0.502250000000     3.01883    
Eu15     Eu     0.612060000000     0.997210000000     0.496960000000     3.48719    
Eu16     Eu     0.498970000000     0.880310000000     0.502880000000     3.03689    
Eu17     Eu     0.494370000000     0.111330000000     0.496280000000     3.48721    
Eu18     Eu     0.500450000000     0.000140000000     0.614960000000     3.05225    
Eu19     Eu     0.381580000000     0.500870000000     0.001240000000     3.58158    
Eu20     Eu     0.499880000000     0.611950000000     0.002070000000     3.06872    
Eu21     Eu     0.493080000000     0.381630000000     0.998760000000     3.48812    
Eu22     Eu     0.496610000000     0.494420000000     0.116260000000     3.0965     
Eu23     Eu     0.497240000000     0.499610000000     0.884900000000     3.44491    
Eu24     Eu     0.611760000000     0.492500000000     0.999770000000     3.05796    
H1       H      0.932990000000     0.935060000000     0.105840000000    -0.160521   
H2       H      0.083530000000     0.094390000000     0.095300000000     0.412856   
H3       H      0.935890000000     0.102920000000     0.936510000000    -0.19139    
H4       H      0.102620000000     0.940330000000     0.942270000000    -0.215627   
H5       H      0.938830000000     0.556770000000     0.392230000000    -0.162338   
H6       H      0.089460000000     0.397320000000     0.409750000000     0.416122   
H7       H      0.936450000000     0.392190000000     0.562820000000    -0.203879   
H8       H      0.107760000000     0.554570000000     0.561080000000    -0.16998    
H9       H      0.435710000000     0.932090000000     0.396060000000    -0.197322   
H10      H      0.586770000000     0.087720000000     0.398180000000     0.414409   
H11      H      0.607410000000     0.939530000000     0.558440000000    -0.173327   
H12      H      0.436940000000     0.105590000000     0.558100000000    -0.163725   
H13      H      0.393090000000     0.557070000000     0.060530000000    -0.230143   
H14      H      0.398500000000     0.407100000000     0.904330000000     0.412448   
H15      H      0.551010000000     0.386490000000     0.059030000000    -0.185546   
H16      H      0.558310000000     0.557290000000     0.892870000000    -0.163001   
H17      H      0.548530000000     0.271290000000     0.296860000000     0.0290961  
H18      H      0.469830000000     0.357990000000     0.278870000000     0.0375022  
H19      H      0.533850000000     0.175060000000     0.203060000000    -0.00573859 
H20      H      0.452940000000     0.214570000000     0.127100000000     0.0546173  
H21      H      0.488100000000     0.272260000000     0.359380000000     0.0399044  
H22      H      0.403730000000     0.301310000000     0.281970000000     0.0354205  
H23      H      0.391800000000     0.217740000000     0.188850000000     0.0545719  
H24      H      0.473540000000     0.096200000000     0.168670000000     0.129721   
H25      H      0.585420000000     0.681650000000     0.290500000000     0.0341572  
H26      H      0.503190000000     0.709850000000     0.369290000000     0.0390241  
H27      H      0.594440000000     0.772880000000     0.210160000000     0.000294406
H28      H      0.510610000000     0.857610000000     0.221090000000     0.0567414  
H29      H      0.520360000000     0.624430000000     0.284240000000     0.039193   
H30      H      0.440120000000     0.706360000000     0.309310000000     0.0359954  
H31      H      0.447660000000     0.798000000000     0.212300000000     0.0562865  
H32      H      0.568190000000     0.818360000000     0.119040000000     0.131842   
H33      H      0.565080000000     0.715460000000     0.702410000000     0.0336193  
H34      H      0.479080000000     0.635690000000     0.720260000000     0.0443108  
H35      H      0.563230000000     0.805360000000     0.793860000000    -0.000705823
H36      H      0.477600000000     0.780050000000     0.872410000000     0.0553858  
H37      H      0.505100000000     0.719450000000     0.639530000000     0.0387154  
H38      H      0.418190000000     0.697940000000     0.717280000000     0.0381598  
H39      H      0.416620000000     0.784730000000     0.810460000000     0.0567254  
H40      H      0.519810000000     0.892300000000     0.833360000000     0.13368    
H41      H      0.438630000000     0.213220000000     0.801180000000     0.0294711  
H42      H      0.525660000000     0.136550000000     0.776580000000     0.0433889  
H43      H      0.433650000000     0.302780000000     0.708070000000    -0.00730241 
H44      H      0.516250000000     0.282420000000     0.626360000000     0.0652506  
H45      H      0.502640000000     0.219440000000     0.859900000000     0.045769   
H46      H      0.584820000000     0.200280000000     0.777310000000     0.0416471  
H47      H      0.579710000000     0.288240000000     0.685820000000     0.0627709  
H48      H      0.455680000000     0.402520000000     0.699180000000     0.147545   
H49      H      0.775270000000     0.193150000000     0.418810000000     0.0287009  
H50      H      0.858920000000     0.216280000000     0.498620000000     0.0401813  
H51      H      0.687920000000     0.283720000000     0.419210000000    -0.0055093  
H52      H      0.714190000000     0.366930000000     0.499300000000     0.0629749  
H53      H      0.774210000000     0.133580000000     0.482290000000     0.0368264  
H54      H      0.801330000000     0.214340000000     0.564040000000     0.037175   
H55      H      0.710560000000     0.309320000000     0.564710000000     0.0609227  
H56      H      0.601690000000     0.325860000000     0.461090000000     0.129814   
H57      H      0.719570000000     0.699460000000     0.570500000000     0.0359296  
H58      H      0.635810000000     0.716310000000     0.488380000000     0.0394363  
H59      H      0.808870000000     0.791010000000     0.562150000000     0.00182836 
H60      H      0.780380000000     0.866990000000     0.475060000000     0.0543611  
H61      H      0.720910000000     0.635560000000     0.511560000000     0.0476439  
H62      H      0.694320000000     0.710890000000     0.423980000000     0.0384993  
H63      H      0.782230000000     0.803450000000     0.415520000000     0.0565248  
H64      H      0.894010000000     0.828820000000     0.514140000000     0.14069    
H65      H      0.283070000000     0.295950000000     0.571110000000     0.0336144  
H66      H      0.358110000000     0.276550000000     0.481070000000     0.0400255  
H67      H      0.197530000000     0.204420000000     0.575470000000    -0.00270871 
H68      H      0.213160000000     0.125650000000     0.488380000000     0.0673615  
H69      H      0.275710000000     0.358180000000     0.510760000000     0.0368407  
H70      H      0.293170000000     0.280080000000     0.423090000000     0.0325426  
H71      H      0.204240000000     0.187560000000     0.427690000000     0.0579005  
H72      H      0.095740000000     0.200970000000     0.560340000000     0.14433    
H73      H      0.293250000000     0.685560000000     0.429840000000     0.0341511  
H74      H      0.366460000000     0.711140000000     0.518890000000     0.0390638  
H75      H      0.211150000000     0.778060000000     0.420600000000     3.5486e-05 
H76      H      0.218210000000     0.858690000000     0.510010000000     0.0537961  
H77      H      0.283350000000     0.626320000000     0.492920000000     0.0363827  
H78      H      0.302130000000     0.706400000000     0.577270000000     0.0349849  
H79      H      0.208360000000     0.795200000000     0.569040000000     0.0546016  
H80      H      0.119120000000     0.821400000000     0.446300000000     0.131295   
H81      H      0.805310000000     0.413950000000     0.216410000000     0.0335724  
H82      H      0.779240000000     0.494920000000     0.134770000000     0.0422268  
H83      H      0.714470000000     0.410180000000     0.301120000000    -0.00140312 
H84      H      0.630700000000     0.492940000000     0.282190000000     0.0542299  
H85      H      0.863510000000     0.478440000000     0.219630000000     0.0390918  
H86      H      0.781910000000     0.559170000000     0.193580000000     0.0380323  
H87      H      0.689830000000     0.556620000000     0.287420000000     0.0565677  
H88      H      0.671740000000     0.444250000000     0.390500000000     0.130804   
H89      H      0.280080000000     0.419020000000     0.309180000000     0.0277827  
H90      H      0.361990000000     0.499310000000     0.283210000000     0.0380864  
H91      H      0.194810000000     0.415800000000     0.217610000000    -0.00554046 
H92      H      0.215350000000     0.497900000000     0.133640000000     0.0543859  
H93      H      0.277420000000     0.483830000000     0.367300000000     0.036137   
H94      H      0.303570000000     0.563910000000     0.285020000000     0.0367043  
H95      H      0.211100000000     0.561890000000     0.192770000000     0.0559995  
H96      H      0.106420000000     0.451700000000     0.174770000000     0.13018    
H97      H      0.207890000000     0.570920000000     0.803090000000     0.0344426  
H98      H      0.133190000000     0.480940000000     0.784660000000     0.0380859  
H99      H      0.291350000000     0.573450000000     0.711100000000    -0.000448169
H100     H      0.280130000000     0.480840000000     0.634960000000     0.0529484  
H101     H      0.216160000000     0.512160000000     0.866780000000     0.0354279  
H102     H      0.197650000000     0.422920000000     0.791310000000     0.0302045  
H103     H      0.288960000000     0.424640000000     0.701100000000     0.0493233  
H104     H      0.382630000000     0.542600000000     0.669890000000     0.130753   
H105     H      0.802500000000     0.566330000000     0.792500000000     0.0364235  
H106     H      0.778060000000     0.476210000000     0.865370000000     0.0438119  
H107     H      0.711690000000     0.575720000000     0.707490000000    -0.000622528
H108     H      0.630320000000     0.488170000000     0.717160000000     0.0632921  
H109     H      0.862330000000     0.503890000000     0.783420000000     0.0388241  
H110     H      0.781900000000     0.419090000000     0.799700000000     0.0374436  
H111     H      0.692380000000     0.427840000000     0.707470000000     0.0616804  
H112     H      0.670120000000     0.548640000000     0.615050000000     0.133116   
H113     H      0.699070000000     0.776210000000     0.073390000000     0.0374729  
H114     H      0.716010000000     0.857100000000     0.988310000000     0.0419613  
H115     H      0.789500000000     0.688340000000     0.070450000000     0.000321349
H116     H      0.867530000000     0.712720000000     0.983860000000     0.0557216  
H117     H      0.635630000000     0.772960000000     0.014060000000     0.0451955  
H118     H      0.711790000000     0.796040000000     0.926100000000     0.0355942  
H119     H      0.805390000000     0.707730000000     0.923080000000     0.0556342  
H120     H      0.829370000000     0.601060000000     0.028150000000     0.13148    
H121     H      0.765740000000     0.291490000000     0.070350000000     0.0339345  
H122     H      0.855570000000     0.275900000000     0.994950000000     0.0391875  
H123     H      0.674040000000     0.200680000000     0.053880000000    -0.0017945  
H124     H      0.713010000000     0.124020000000     0.973210000000     0.0646467  
H125     H      0.769850000000     0.355580000000     0.011600000000     0.0399097  
H126     H      0.801700000000     0.279840000000     0.926230000000     0.0361027  
H127     H      0.716880000000     0.185490000000     0.911620000000     0.0597563  
H128     H      0.595150000000     0.163960000000     0.995050000000     0.131857   
H129     H      0.194040000000     0.727050000000     0.933810000000     0.0346765  
H130     H      0.218120000000     0.636000000000     0.004670000000     0.03972    
H131     H      0.286280000000     0.823220000000     0.948160000000    -0.00207074 
H132     H      0.368250000000     0.780460000000     0.019470000000     0.057248   
H133     H      0.135770000000     0.720970000000     0.998300000000     0.0456611  
H134     H      0.217940000000     0.687220000000     0.075400000000     0.0395063  
H135     H      0.312890000000     0.773350000000     0.086330000000     0.0593836  
H136     H      0.323410000000     0.899430000000     0.009940000000     0.132022   
H137     H      0.272940000000     0.196170000000     0.927940000000     0.0316489  
H138     H      0.355710000000     0.218780000000     0.009510000000     0.0386916  
H139     H      0.183300000000     0.287420000000     0.928840000000    -0.00474657 
H140     H      0.211340000000     0.369880000000     0.009160000000     0.0498124  
H141     H      0.271150000000     0.136540000000     0.991350000000     0.0378339  
H142     H      0.296740000000     0.217570000000     0.073620000000     0.0335017  
H143     H      0.208180000000     0.311960000000     0.074230000000     0.0523818  
H144     H      0.097820000000     0.328580000000     0.973270000000     0.129829   
H145     H      0.803550000000     0.930540000000     0.705070000000     0.0344082  
H146     H      0.783520000000     0.017890000000     0.628290000000     0.03947    
H147     H      0.707720000000     0.930260000000     0.786670000000    -0.00105501 
H148     H      0.634830000000     0.024920000000     0.776110000000     0.0637546  
H149     H      0.865760000000     0.990440000000     0.713780000000     0.0442137  
H150     H      0.790420000000     0.078090000000     0.691030000000     0.0379751  
H151     H      0.702840000000     0.078640000000     0.783270000000     0.0577484  
H152     H      0.704200000000     0.941220000000     0.889610000000     0.144933   
H153     H      0.281240000000     0.935730000000     0.816650000000     0.0357336  
H154     H      0.366510000000     0.009370000000     0.785780000000     0.0442732  
H155     H      0.196110000000     0.933580000000     0.718450000000     0.000795239
H156     H      0.220960000000     0.016300000000     0.635360000000     0.0573823  
H157     H      0.278620000000     0.004530000000     0.869800000000     0.0407671  
H158     H      0.312360000000     0.077650000000     0.785170000000     0.035755   
H159     H      0.220450000000     0.078930000000     0.695900000000     0.0567437  
H160     H      0.110310000000     0.974090000000     0.674420000000     0.133862   
H161     H      0.299470000000     0.926260000000     0.218890000000     0.0386108  
H162     H      0.272770000000     0.006950000000     0.136940000000     0.0452256  
H163     H      0.207920000000     0.922910000000     0.308240000000    -0.00230326 
H164     H      0.123380000000     0.000400000000     0.283380000000     0.0617908  
H165     H      0.356310000000     0.992040000000     0.220970000000     0.0471373  
H166     H      0.272310000000     0.070790000000     0.196360000000     0.0352437  
H167     H      0.179210000000     0.067140000000     0.286650000000     0.0558093  
H168     H      0.195980000000     0.950090000000     0.406540000000     0.139974   
H169     H      0.792210000000     0.069290000000     0.283480000000     0.0308917  
H170     H      0.774510000000     0.980360000000     0.360540000000     0.0386425  
H171     H      0.702730000000     0.070610000000     0.196320000000    -0.0041914  
H172     H      0.624080000000     0.982880000000     0.214460000000     0.0522595  
H173     H      0.855720000000     0.010220000000     0.278030000000     0.0434555  
H174     H      0.779120000000     0.921580000000     0.296390000000     0.0373735  
H175     H      0.686580000000     0.922690000000     0.206970000000     0.055612   
H176     H      0.662600000000     0.034460000000     0.106290000000     0.131773   
H177     H      0.087150000000     0.282730000000     0.807220000000     0.0332217  
H178     H      0.003840000000     0.363060000000     0.786250000000     0.039011   
H179     H      0.088480000000     0.201940000000     0.715960000000     0.000786442
H180     H      0.999300000000     0.216200000000     0.636500000000     0.0535941  
H181     H      0.026580000000     0.277940000000     0.869390000000     0.0424352  
H182     H      0.940710000000     0.303350000000     0.792390000000     0.0357559  
H183     H      0.940540000000     0.209070000000     0.700390000000     0.0551715  
H184     H      0.054730000000     0.112670000000     0.671010000000     0.138847   
H185     H      0.069640000000     0.694990000000     0.786150000000     0.0334668  
H186     H      0.983640000000     0.715460000000     0.864910000000     0.040338   
H187     H      0.070220000000     0.787150000000     0.700630000000    -0.0013772  
H188     H      0.982240000000     0.864860000000     0.717370000000     0.0633818  
H189     H      0.008910000000     0.633020000000     0.781260000000     0.0384704  
H190     H      0.922820000000     0.711070000000     0.802620000000     0.036936   
H191     H      0.922970000000     0.801290000000     0.711920000000     0.0583551  
H192     H      0.052280000000     0.790740000000     0.598900000000     0.153973   
H193     H      0.945010000000     0.801340000000     0.281430000000     0.0367     
H194     H      0.023070000000     0.776030000000     0.365990000000     0.0511505  
H195     H      0.953170000000     0.705710000000     0.184070000000    -0.00168591 
H196     H      0.033010000000     0.626790000000     0.219550000000     0.0609906  
H197     H      0.009810000000     0.859290000000     0.280550000000     0.0419222  
H198     H      0.089090000000     0.777550000000     0.309140000000     0.0394199  
H199     H      0.095870000000     0.686740000000     0.222390000000     0.0599015  
H200     H      0.008980000000     0.670390000000     0.102550000000     0.132398   
H201     H      0.909790000000     0.280550000000     0.191740000000     0.034907   
H202     H      0.991600000000     0.360150000000     0.220120000000     0.0406821  
H203     H      0.901310000000     0.195270000000     0.281750000000    -0.000752393
H204     H      0.979660000000     0.214050000000     0.369070000000     0.0574336  
H205     H      0.975730000000     0.276280000000     0.135100000000     0.0400411  
H206     H      0.054580000000     0.300210000000     0.219290000000     0.0304413  
H207     H      0.046480000000     0.206440000000     0.313580000000     0.0534387  
H208     H      0.933810000000     0.106030000000     0.326280000000     0.131613   
N1       N      0.483030000000     0.192380000000     0.290510000000    -0.203599   
N2       N      0.461760000000     0.291650000000     0.197790000000    -0.181841   
N3       N      0.528730000000     0.694210000000     0.205530000000    -0.199744   
N4       N      0.500240000000     0.788890000000     0.300250000000    -0.181241   
N5       N      0.505920000000     0.799320000000     0.708880000000    -0.199077   
N6       N      0.476900000000     0.702490000000     0.801480000000    -0.180541   
N7       N      0.494020000000     0.299250000000     0.791560000000    -0.203805   
N8       N      0.522210000000     0.204190000000     0.695960000000    -0.179767   
N9       N      0.694630000000     0.202610000000     0.481820000000    -0.204683   
N10      N      0.791940000000     0.296930000000     0.503770000000    -0.180006   
N11      N      0.800550000000     0.704590000000     0.507380000000    -0.195985   
N12      N      0.702560000000     0.796830000000     0.479540000000    -0.180953   
N13      N      0.196190000000     0.289060000000     0.516500000000    -0.205974   
N14      N      0.290990000000     0.195780000000     0.481710000000    -0.179454   
N15      N      0.204970000000     0.695510000000     0.481470000000    -0.199968   
N16      N      0.297490000000     0.790330000000     0.518340000000    -0.177369   
N17      N      0.794670000000     0.473970000000     0.299360000000    -0.200262   
N18      N      0.699600000000     0.498810000000     0.203070000000    -0.177992   
N19      N      0.198040000000     0.479790000000     0.297960000000    -0.205944   
N20      N      0.293970000000     0.502550000000     0.203200000000    -0.183152   
N21      N      0.295090000000     0.516910000000     0.796900000000    -0.204153   
N22      N      0.201390000000     0.477970000000     0.704610000000    -0.181388   
N23      N      0.793980000000     0.514610000000     0.703860000000    -0.197816   
N24      N      0.698740000000     0.478990000000     0.796380000000    -0.178365   
N25      N      0.704850000000     0.693250000000     0.012750000000    -0.19799    
N26      N      0.796870000000     0.790350000000     0.983190000000    -0.178452   
N27      N      0.690660000000     0.286570000000     0.000250000000    -0.203495   
N28      N      0.789630000000     0.195080000000     0.982920000000    -0.182419   
N29      N      0.203530000000     0.801180000000     0.004400000000    -0.200632   
N30      N      0.298570000000     0.702710000000     0.013860000000    -0.182303   
N31      N      0.191360000000     0.205270000000     0.989790000000    -0.203616   
N32      N      0.289010000000     0.299800000000     0.012610000000    -0.18447    
N33      N      0.794980000000     0.985130000000     0.791930000000    -0.200668   
N34      N      0.704070000000     0.023180000000     0.696670000000    -0.180817   
N35      N      0.200810000000     0.997050000000     0.799190000000    -0.201997   
N36      N      0.299390000000     0.014360000000     0.705490000000    -0.178922   
N37      N      0.288260000000     0.986750000000     0.301400000000    -0.201423   
N38      N      0.192540000000     0.006910000000     0.204770000000    -0.183833   
N39      N      0.787040000000     0.012300000000     0.197810000000    -0.199899   
N40      N      0.694010000000     0.978720000000     0.292710000000    -0.184113   
N41      N      0.027600000000     0.199370000000     0.798790000000    -0.201342   
N42      N      0.996500000000     0.294890000000     0.706520000000    -0.182177   
N43      N      0.011710000000     0.702230000000     0.701350000000    -0.201653   
N44      N      0.981010000000     0.795310000000     0.796430000000    -0.179656   
N45      N      0.007420000000     0.791190000000     0.200420000000    -0.198838   
N46      N      0.027800000000     0.696060000000     0.298030000000    -0.178107   
N47      N      0.967800000000     0.196610000000     0.203560000000    -0.202144   
N48      N      0.991970000000     0.292180000000     0.300320000000    -0.183048   
O1       O      0.981120000000     0.170020000000     0.093370000000    -0.620198   
O2       O      0.000950000000     0.821720000000     0.091370000000    -0.566836   
O3       O      0.897310000000     0.003680000000     0.172620000000    -0.596709   
O4       O      0.083640000000     0.997870000000     0.175440000000    -0.615947   
O5       O      0.166640000000     0.000180000000     0.094810000000    -0.633008   
O6       O      0.818160000000     0.001720000000     0.088790000000    -0.558494   
O7       O      0.001520000000     0.902040000000     0.174200000000    -0.599618   
O8       O      0.981450000000     0.087680000000     0.174340000000    -0.598318   
O9       O      0.058910000000     0.934840000000     0.064570000000    -1.45992    
O10      O      0.928540000000     0.059540000000     0.061950000000    -1.4657     
O11      O      0.920740000000     0.921410000000     0.064170000000    -1.0692     
O12      O      0.057680000000     0.064990000000     0.067340000000    -1.639      
O13      O      0.992610000000     0.822310000000     0.905790000000    -0.566138   
O14      O      0.008030000000     0.172330000000     0.907300000000    -0.604673   
O15      O      0.822000000000     0.900310000000     0.991980000000    -0.562999   
O16      O      0.171770000000     0.909670000000     0.008670000000    -0.610734   
O17      O      0.165800000000     0.094640000000     0.995670000000    -0.631448   
O18      O      0.818690000000     0.086750000000     0.993020000000    -0.573794   
O19      O      0.904340000000     0.993930000000     0.821480000000    -0.564251   
O20      O      0.090960000000     0.997370000000     0.826390000000    -0.560719   
O21      O      0.822210000000     0.989390000000     0.902290000000    -0.554047   
O22      O      0.171250000000     0.005000000000     0.908770000000    -0.612964   
O23      O      0.905360000000     0.820270000000     0.993100000000    -0.560781   
O24      O      0.898300000000     0.170260000000     0.998170000000    -0.627388   
O25      O      0.082410000000     0.174050000000     0.996900000000    -0.615454   
O26      O      0.092890000000     0.825870000000     0.002360000000    -0.567422   
O27      O      0.991550000000     0.904230000000     0.824030000000    -0.569916   
O28      O      0.007610000000     0.090910000000     0.825530000000    -0.5554     
O29      O      0.058050000000     0.062220000000     0.936820000000    -1.49203    
O30      O      0.933900000000     0.932730000000     0.934480000000    -1.39325    
O31      O      0.921330000000     0.062110000000     0.923220000000    -1.06008    
O32      O      0.063340000000     0.924700000000     0.926360000000    -1.04427    
O33      O      0.990660000000     0.321210000000     0.410370000000    -0.624436   
O34      O      0.009860000000     0.669640000000     0.406480000000    -0.564607   
O35      O      0.904410000000     0.485380000000     0.326170000000    -0.60834    
O36      O      0.089350000000     0.491320000000     0.327120000000    -0.609337   
O37      O      0.171690000000     0.490510000000     0.407980000000    -0.630715   
O38      O      0.823660000000     0.490120000000     0.408290000000    -0.553634   
O39      O      0.012010000000     0.587080000000     0.325560000000    -0.599897   
O40      O      0.992770000000     0.402000000000     0.327480000000    -0.616879   
O41      O      0.063810000000     0.556540000000     0.436510000000    -1.46682    
O42      O      0.933090000000     0.432650000000     0.438620000000    -1.47278    
O43      O      0.925990000000     0.571020000000     0.433600000000    -1.07039    
O44      O      0.062680000000     0.427160000000     0.436290000000    -1.64213    
O45      O      0.004300000000     0.671830000000     0.592090000000    -0.550978   
O46      O      0.999930000000     0.322290000000     0.596950000000    -0.621985   
O47      O      0.825850000000     0.594040000000     0.502660000000    -0.557319   
O48      O      0.175850000000     0.585630000000     0.490810000000    -0.607822   
O49      O      0.170280000000     0.399210000000     0.508480000000    -0.628827   
O50      O      0.821980000000     0.406130000000     0.501790000000    -0.556742   
O51      O      0.904160000000     0.505580000000     0.676790000000    -0.560027   
O52      O      0.092070000000     0.488610000000     0.677070000000    -0.569375   
O53      O      0.823400000000     0.506300000000     0.594310000000    -0.545977   
O54      O      0.173440000000     0.484740000000     0.594910000000    -0.614282   
O55      O      0.909680000000     0.673110000000     0.503010000000    -0.543329   
O56      O      0.901740000000     0.322620000000     0.498570000000    -0.619646   
O57      O      0.086740000000     0.319870000000     0.510070000000    -0.618938   
O58      O      0.095510000000     0.668130000000     0.492410000000    -0.550011   
O59      O      0.002760000000     0.592190000000     0.675590000000    -0.56999    
O60      O      0.997960000000     0.404550000000     0.678290000000    -0.573494   
O61      O      0.060680000000     0.431650000000     0.566200000000    -1.47369    
O62      O      0.936590000000     0.561990000000     0.564690000000    -1.36907    
O63      O      0.923030000000     0.433130000000     0.576670000000    -1.04405    
O64      O      0.066770000000     0.568990000000     0.574330000000    -1.0671     
O65      O      0.668760000000     0.989460000000     0.402470000000    -0.629594   
O66      O      0.320010000000     0.991440000000     0.410570000000    -0.558851   
O67      O      0.500710000000     0.898530000000     0.326420000000    -0.621251   
O68      O      0.486970000000     0.083080000000     0.321920000000    -0.618963   
O69      O      0.487550000000     0.167200000000     0.401050000000    -0.626728   
O70      O      0.499540000000     0.818590000000     0.410070000000    -0.566016   
O71      O      0.398650000000     0.994390000000     0.326330000000    -0.609385   
O72      O      0.585050000000     0.985810000000     0.322710000000    -0.627559   
O73      O      0.430840000000     0.057420000000     0.434620000000    -1.46877    
O74      O      0.559920000000     0.931850000000     0.435740000000    -1.47439    
O75      O      0.422770000000     0.919080000000     0.437530000000    -1.04984    
O76      O      0.560450000000     0.061230000000     0.428500000000    -1.64264    
O77      O      0.325420000000     0.999900000000     0.596700000000    -0.57182    
O78      O      0.675010000000     0.011640000000     0.587260000000    -0.610675   
O79      O      0.406850000000     0.819260000000     0.511320000000    -0.561973   
O80      O      0.401130000000     0.170160000000     0.487710000000    -0.60895    
O81      O      0.585910000000     0.172190000000     0.491280000000    -0.614532   
O82      O      0.593440000000     0.822940000000     0.494170000000    -0.570332   
O83      O      0.502130000000     0.908580000000     0.677230000000    -0.551806   
O84      O      0.509140000000     0.094810000000     0.671190000000    -0.570287   
O85      O      0.501930000000     0.824360000000     0.598280000000    -0.572442   
O86      O      0.508040000000     0.174220000000     0.587050000000    -0.599492   
O87      O      0.324310000000     0.900190000000     0.510920000000    -0.55818    
O88      O      0.673540000000     0.905950000000     0.487580000000    -0.610558   
O89      O      0.669080000000     0.092410000000     0.492030000000    -0.626352   
O90      O      0.321050000000     0.087110000000     0.493180000000    -0.558265   
O91      O      0.408530000000     0.003800000000     0.677060000000    -0.560114   
O92      O      0.595180000000     0.009660000000     0.670850000000    -0.569716   
O93      O      0.561670000000     0.063290000000     0.558610000000    -1.47084    
O94      O      0.436290000000     0.933690000000     0.566990000000    -1.36049    
O95      O      0.566840000000     0.925830000000     0.573590000000    -1.06187    
O96      O      0.424760000000     0.064250000000     0.572700000000    -1.07187    
O97      O      0.398680000000     0.324710000000     0.002430000000    -0.628516   
O98      O      0.407490000000     0.673180000000     0.006250000000    -0.569557   
O99      O      0.321730000000     0.495610000000     0.093750000000    -0.619858   
O100     O      0.322640000000     0.508850000000     0.907130000000    -0.63677    
O101     O      0.404410000000     0.507470000000     0.825770000000    -0.602195   
O102     O      0.403370000000     0.497510000000     0.175680000000    -0.581055   
O103     O      0.323740000000     0.594020000000     0.998360000000    -0.628141   
O104     O      0.319600000000     0.408820000000     0.005500000000    -0.636583   
O105     O      0.434260000000     0.563030000000     0.937300000000    -1.47775    
O106     O      0.430580000000     0.433840000000     0.062730000000    -1.48883    
O107     O      0.433150000000     0.571060000000     0.075780000000    -1.03575    
O108     O      0.427520000000     0.433440000000     0.932220000000    -1.6463     
O109     O      0.594800000000     0.668230000000     0.004740000000    -0.563937   
O110     O      0.582330000000     0.318230000000     0.994020000000    -0.609718   
O111     O      0.508800000000     0.586250000000     0.177040000000    -0.570432   
O112     O      0.487910000000     0.592730000000     0.826380000000    -0.602736   
O113     O      0.496170000000     0.408290000000     0.823130000000    -0.610821   
O114     O      0.483780000000     0.399830000000     0.172860000000    -0.578355   
O115     O      0.671670000000     0.494320000000     0.093100000000    -0.559209   
O116     O      0.670980000000     0.485950000000     0.906170000000    -0.570653   
O117     O      0.590170000000     0.492830000000     0.175220000000    -0.570704   
O118     O      0.589370000000     0.488880000000     0.824320000000    -0.598574   
O119     O      0.511260000000     0.668600000000     0.096160000000    -0.549768   
O120     O      0.477030000000     0.320180000000     0.089180000000    -0.603753   
O121     O      0.494820000000     0.324780000000     0.902750000000    -0.617416   
O122     O      0.491500000000     0.672760000000     0.909810000000    -0.578082   
O123     O      0.673620000000     0.584090000000     0.004950000000    -0.545527   
O124     O      0.666470000000     0.396820000000     0.997910000000    -0.583541   
O125     O      0.557610000000     0.431350000000     0.934480000000    -1.46136    
O126     O      0.561520000000     0.556130000000     0.064130000000    -1.3909     
O127     O      0.567610000000     0.426280000000     0.073060000000    -1.05738    
O128     O      0.572400000000     0.569240000000     0.934490000000    -1.06963    
O129     O      0.454630000000     0.113520000000     0.209580000000    -0.269119   
O130     O      0.540610000000     0.779390000000     0.125700000000    -0.268094   
O131     O      0.496160000000     0.880110000000     0.793060000000    -0.269636   
O132     O      0.497900000000     0.380610000000     0.706890000000    -0.271907   
O133     O      0.614140000000     0.287350000000     0.487370000000    -0.268074   
O134     O      0.880700000000     0.788190000000     0.491800000000    -0.264151   
O135     O      0.115800000000     0.203700000000     0.516500000000    -0.278214   
O136     O      0.125150000000     0.780910000000     0.471840000000    -0.266973   
O137     O      0.709920000000     0.471860000000     0.380310000000    -0.266536   
O138     O      0.117300000000     0.479410000000     0.212790000000    -0.270076   
O139     O      0.375260000000     0.518700000000     0.711200000000    -0.271666   
O140     O      0.709560000000     0.522020000000     0.622640000000    -0.265419   
O141     O      0.789150000000     0.612670000000     0.004230000000    -0.269318   
O142     O      0.611910000000     0.204320000000     0.974640000000    -0.268559   
O143     O      0.285110000000     0.879740000000     0.031600000000    -0.266654   
O144     O      0.110930000000     0.289630000000     0.998530000000    -0.272761   
O145     O      0.707840000000     0.985590000000     0.871040000000    -0.274935   
O146     O      0.122200000000     0.001440000000     0.712410000000    -0.260738   
O147     O      0.203970000000     0.991290000000     0.382740000000    -0.272617   
O148     O      0.702880000000     0.009940000000     0.116220000000    -0.267763   
O149     O      0.031530000000     0.119620000000     0.712800000000    -0.259728   
O150     O      0.009180000000     0.787400000000     0.620220000000    -0.272385   
O151     O      0.030680000000     0.709760000000     0.120000000000    -0.267839   
O152     O      0.961950000000     0.115720000000     0.288270000000    -0.268191   


