data_structure

_audit_creation_method RASPA-1.0
_audit_creation_date 2023-5-19
_audit_author_name 'Poobodin Mano'

_cell_length_a    33.1881
_cell_length_b    33.1891
_cell_length_c    33.1892
_cell_angle_alpha 90
_cell_angle_beta  90
_cell_angle_gamma 90
_cell_volume      36557.3

_symmetry_cell_setting          triclinic
_symmetry_space_group_name_Hall 'P 1'
_symmetry_space_group_name_H-M  'P 1'
_symmetry_Int_Tables_number     1

_symmetry_equiv_pos_as_xyz 'x,y,z'

loop_
_atom_site_label
_atom_site_type_symbol
_atom_site_fract_x
_atom_site_fract_y
_atom_site_fract_z
_atom_site_charge
C1       C      0.015180000000     0.115480000000     0.115560000000     0.460662   
C2       C      0.024820000000     0.923180000000     0.116150000000     0.462842   
C3       C      0.922520000000     0.024770000000     0.116430000000     0.462802   
C4       C      0.114830000000     0.016370000000     0.115420000000     0.461589   
C5       C      0.015920000000     0.923030000000     0.922930000000     0.45208    
C6       C      0.025100000000     0.116300000000     0.923290000000     0.462954   
C7       C      0.921970000000     0.923200000000     0.016940000000     0.451967   
C8       C      0.115220000000     0.923000000000     0.025590000000     0.463214   
C9       C      0.115030000000     0.115310000000     0.015660000000     0.461036   
C10      C      0.922790000000     0.116530000000     0.025880000000     0.462998   
C11      C      0.922150000000     0.018190000000     0.923010000000     0.452633   
C12      C      0.115510000000     0.024480000000     0.923100000000     0.463773   
C13      C      0.014460000000     0.422920000000     0.423040000000     0.461576   
C14      C      0.024820000000     0.615130000000     0.422130000000     0.463429   
C15      C      0.922130000000     0.512890000000     0.422600000000     0.464681   
C16      C      0.114410000000     0.522580000000     0.422590000000     0.463104   
C17      C      0.016670000000     0.615570000000     0.615480000000     0.452274   
C18      C      0.025150000000     0.422250000000     0.615250000000     0.46425    
C19      C      0.922450000000     0.615760000000     0.520860000000     0.453935   
C20      C      0.115750000000     0.615080000000     0.513430000000     0.465412   
C21      C      0.114620000000     0.422790000000     0.521570000000     0.46374    
C22      C      0.922230000000     0.422370000000     0.514300000000     0.464593   
C23      C      0.922590000000     0.521810000000     0.615890000000     0.453985   
C24      C      0.115850000000     0.512630000000     0.614930000000     0.465858   
C25      C      0.614780000000     0.016610000000     0.423050000000     0.461657   
C26      C      0.422460000000     0.024680000000     0.422100000000     0.463305   
C27      C      0.524080000000     0.923210000000     0.422150000000     0.465186   
C28      C      0.515230000000     0.115540000000     0.423000000000     0.462638   
C29      C      0.422150000000     0.017280000000     0.615440000000     0.453114   
C30      C      0.615460000000     0.025030000000     0.615310000000     0.463458   
C31      C      0.422400000000     0.922690000000     0.520740000000     0.453997   
C32      C      0.422170000000     0.116020000000     0.513600000000     0.464908   
C33      C      0.614530000000     0.115660000000     0.522200000000     0.463248   
C34      C      0.615740000000     0.923400000000     0.513540000000     0.464407   
C35      C      0.516690000000     0.922830000000     0.615450000000     0.453892   
C36      C      0.523650000000     0.116160000000     0.615360000000     0.465978   
C37      C      0.422550000000     0.422720000000     0.015420000000     0.461302   
C38      C      0.614800000000     0.422490000000     0.026160000000     0.4639     
C39      C      0.513950000000     0.422130000000     0.923220000000     0.465629   
C40      C      0.521230000000     0.422990000000     0.115600000000     0.463189   
C41      C      0.614630000000     0.615720000000     0.017180000000     0.452729   
C42      C      0.421250000000     0.614950000000     0.025300000000     0.463671   
C43      C      0.615210000000     0.521730000000     0.923330000000     0.453558   
C44      C      0.614180000000     0.512980000000     0.116610000000     0.465977   
C45      C      0.421880000000     0.522630000000     0.115150000000     0.463076   
C46      C      0.421890000000     0.512510000000     0.922940000000     0.464699   
C47      C      0.520330000000     0.615460000000     0.922880000000     0.45382    
C48      C      0.512920000000     0.615380000000     0.116200000000     0.466175   
C49      C      0.521690000000     0.391380000000     0.147220000000    -0.142062   
C50      C      0.521640000000     0.350300000000     0.136710000000     0.0429547  
C51      C      0.521070000000     0.320540000000     0.166500000000    -0.0840297  
C52      C      0.520610000000     0.331070000000     0.207520000000     0.0376042  
C53      C      0.521050000000     0.372090000000     0.218060000000    -0.0840043  
C54      C      0.521580000000     0.401880000000     0.188300000000     0.0432573  
C55      C      0.519370000000     0.299390000000     0.239180000000    -0.00400503 
C56      C      0.494730000000     0.265240000000     0.234530000000    -0.0374172  
C57      C      0.493430000000     0.235520000000     0.264340000000    -0.037356   
C58      C      0.516740000000     0.239240000000     0.299520000000    -0.00397312 
C59      C      0.541370000000     0.273400000000     0.304170000000    -0.0373414  
C60      C      0.542670000000     0.303120000000     0.274360000000    -0.0371934  
C61      C      0.515540000000     0.207540000000     0.331160000000     0.0375478  
C62      C      0.515130000000     0.166530000000     0.320580000000    -0.0839143  
C63      C      0.514680000000     0.136710000000     0.350320000000     0.0428978  
C64      C      0.514630000000     0.147180000000     0.391410000000    -0.141827   
C65      C      0.514630000000     0.188250000000     0.401950000000     0.0430807  
C66      C      0.515110000000     0.218040000000     0.372190000000    -0.0839628  
C67      C      0.525200000000     0.891570000000     0.390640000000    -0.135092   
C68      C      0.524710000000     0.850550000000     0.401290000000     0.0435676  
C69      C      0.523740000000     0.820720000000     0.371630000000    -0.0822795  
C70      C      0.523290000000     0.831150000000     0.330600000000     0.0380606  
C71      C      0.524530000000     0.872110000000     0.319890000000    -0.0823785  
C72      C      0.525470000000     0.901980000000     0.349550000000     0.0445341  
C73      C      0.520930000000     0.799450000000     0.299120000000    -0.0033295  
C74      C      0.495220000000     0.766140000000     0.304060000000    -0.0370508  
C75      C      0.492770000000     0.736400000000     0.274380000000    -0.0369506  
C76      C      0.515950000000     0.739300000000     0.239060000000    -0.00357972 
C77      C      0.541650000000     0.772620000000     0.234120000000    -0.0368274  
C78      C      0.544100000000     0.802360000000     0.263800000000    -0.0370337  
C79      C      0.513630000000     0.707560000000     0.207610000000     0.03819    
C80      C      0.512390000000     0.666620000000     0.218380000000    -0.0829998  
C81      C      0.511480000000     0.636710000000     0.188760000000     0.0447269  
C82      C      0.511800000000     0.647060000000     0.147660000000    -0.136009   
C83      C      0.512290000000     0.688070000000     0.136940000000     0.0437156  
C84      C      0.513230000000     0.717940000000     0.166570000000    -0.0825262  
C85      C      0.516220000000     0.891200000000     0.647050000000    -0.131067   
C86      C      0.516540000000     0.850130000000     0.636530000000     0.0415371  
C87      C      0.516840000000     0.820360000000     0.666310000000    -0.08094    
C88      C      0.516850000000     0.830890000000     0.707330000000     0.0371822  
C89      C      0.516250000000     0.871900000000     0.717880000000    -0.0806307  
C90      C      0.515910000000     0.901700000000     0.688120000000     0.0417308  
C91      C      0.517700000000     0.799230000000     0.739000000000    -0.00286667 
C92      C      0.494390000000     0.764080000000     0.735000000000    -0.0369034  
C93      C      0.495290000000     0.734280000000     0.764730000000    -0.0369262  
C94      C      0.519520000000     0.738910000000     0.799170000000    -0.00288118 
C95      C      0.542840000000     0.774040000000     0.803170000000    -0.0368015  
C96      C      0.541950000000     0.803840000000     0.773430000000    -0.0368078  
C97      C      0.520320000000     0.707280000000     0.830870000000     0.0371194  
C98      C      0.520910000000     0.666250000000     0.820380000000    -0.0809428  
C99      C      0.521190000000     0.636490000000     0.850180000000     0.0414837  
C100     C      0.520830000000     0.647050000000     0.891230000000    -0.131064   
C101     C      0.520520000000     0.688130000000     0.901700000000     0.0416542  
C102     C      0.520280000000     0.717860000000     0.871880000000    -0.0807009  
C103     C      0.524810000000     0.147620000000     0.647040000000    -0.135905   
C104     C      0.525120000000     0.188720000000     0.636680000000     0.0447391  
C105     C      0.524370000000     0.218340000000     0.666590000000    -0.0829034  
C106     C      0.523290000000     0.207580000000     0.707540000000     0.038206   
C107     C      0.523650000000     0.166540000000     0.717920000000    -0.0825263  
C108     C      0.524430000000     0.136910000000     0.688050000000     0.0436794  
C109     C      0.521220000000     0.239030000000     0.739290000000    -0.00348168 
C110     C      0.544510000000     0.274270000000     0.736270000000    -0.0368929  
C111     C      0.542300000000     0.303950000000     0.766030000000    -0.0369421  
C112     C      0.516740000000     0.299090000000     0.799460000000    -0.00329916 
C113     C      0.493470000000     0.263850000000     0.802480000000    -0.0369469  
C114     C      0.495670000000     0.234160000000     0.772730000000    -0.0368445  
C115     C      0.514620000000     0.330580000000     0.831180000000     0.0382015  
C116     C      0.514220000000     0.371610000000     0.820740000000    -0.0823184  
C117     C      0.513360000000     0.401270000000     0.850560000000     0.0437124  
C118     C      0.512930000000     0.390620000000     0.891590000000    -0.135324   
C119     C      0.512670000000     0.349530000000     0.902000000000     0.0447537  
C120     C      0.513510000000     0.319870000000     0.872130000000    -0.0824567  
C121     C      0.890530000000     0.390900000000     0.512930000000    -0.134706   
C122     C      0.849510000000     0.401590000000     0.512890000000     0.0432031  
C123     C      0.819620000000     0.371940000000     0.513210000000    -0.0819794  
C124     C      0.829990000000     0.330880000000     0.513530000000     0.0378936  
C125     C      0.870960000000     0.320150000000     0.512940000000    -0.0822631  
C126     C      0.900870000000     0.349790000000     0.512630000000     0.0443639  
C127     C      0.798200000000     0.299380000000     0.515050000000    -0.0032061  
C128     C      0.764310000000     0.304200000000     0.540010000000    -0.037131   
C129     C      0.734570000000     0.274460000000     0.541760000000    -0.0367716  
C130     C      0.738030000000     0.239160000000     0.518610000000    -0.00396587 
C131     C      0.771890000000     0.234350000000     0.493610000000    -0.0369164  
C132     C      0.801630000000     0.264100000000     0.491850000000    -0.0372133  
C133     C      0.706380000000     0.207540000000     0.520400000000     0.0380006  
C134     C      0.665370000000     0.218100000000     0.521110000000    -0.0841656  
C135     C      0.635590000000     0.188340000000     0.522100000000     0.0434518  
C136     C      0.646110000000     0.147280000000     0.522430000000    -0.142421   
C137     C      0.687180000000     0.136760000000     0.522180000000     0.0434831  
C138     C      0.716930000000     0.166540000000     0.521140000000    -0.0841032  
C139     C      0.890950000000     0.647470000000     0.520820000000    -0.131328   
C140     C      0.901620000000     0.688490000000     0.520150000000     0.0418259  
C141     C      0.871960000000     0.718340000000     0.519060000000    -0.0808312  
C142     C      0.830910000000     0.707940000000     0.518620000000     0.0371523  
C143     C      0.820200000000     0.666980000000     0.519650000000    -0.0810857  
C144     C      0.849840000000     0.637100000000     0.520760000000     0.0415872  
C145     C      0.799390000000     0.739700000000     0.516870000000    -0.00293344 
C146     C      0.803210000000     0.775130000000     0.539770000000    -0.0369762  
C147     C      0.773600000000     0.805010000000     0.538070000000    -0.0367741  
C148     C      0.739480000000     0.800160000000     0.513440000000    -0.00323332 
C149     C      0.735680000000     0.764760000000     0.490490000000    -0.0368961  
C150     C      0.765300000000     0.734880000000     0.492180000000    -0.0369812  
C151     C      0.707770000000     0.831740000000     0.512080000000     0.0379993  
C152     C      0.718240000000     0.872770000000     0.511270000000    -0.0823451  
C153     C      0.688420000000     0.902490000000     0.511140000000     0.0443569  
C154     C      0.647380000000     0.891890000000     0.511910000000    -0.134663   
C155     C      0.636940000000     0.850800000000     0.512130000000     0.0431632  
C156     C      0.666780000000     0.821100000000     0.512200000000    -0.0819012  
C157     C      0.146180000000     0.391150000000     0.521640000000    -0.142575   
C158     C      0.135630000000     0.350090000000     0.521700000000     0.0433983  
C159     C      0.165380000000     0.320320000000     0.520620000000    -0.084205   
C160     C      0.206380000000     0.330850000000     0.519450000000     0.037908   
C161     C      0.216970000000     0.371840000000     0.519790000000    -0.0842657  
C162     C      0.187250000000     0.401640000000     0.520910000000     0.043565   
C163     C      0.237990000000     0.299190000000     0.517610000000    -0.00406121 
C164     C      0.234740000000     0.264100000000     0.541100000000    -0.0369651  
C165     C      0.264460000000     0.234340000000     0.539330000000    -0.0372276  
C166     C      0.298120000000     0.238960000000     0.514020000000    -0.00345189 
C167     C      0.301340000000     0.274020000000     0.490480000000    -0.0373551  
C168     C      0.271620000000     0.303790000000     0.492250000000    -0.0371844  
C169     C      0.329900000000     0.207460000000     0.512520000000     0.0377769  
C170     C      0.319550000000     0.166400000000     0.512610000000    -0.0822323  
C171     C      0.349440000000     0.136760000000     0.512360000000     0.0430726  
C172     C      0.390450000000     0.147470000000     0.512070000000    -0.135214   
C173     C      0.400790000000     0.188570000000     0.511340000000     0.0443174  
C174     C      0.370860000000     0.218200000000     0.511570000000    -0.0826146  
C175     C      0.147360000000     0.646620000000     0.511750000000    -0.135463   
C176     C      0.188390000000     0.636040000000     0.510600000000     0.0445523  
C177     C      0.218200000000     0.665770000000     0.510680000000    -0.0829487  
C178     C      0.207720000000     0.706780000000     0.511830000000     0.0380788  
C179     C      0.166730000000     0.717410000000     0.512300000000    -0.0822022  
C180     C      0.136900000000     0.687700000000     0.512260000000     0.0432511  
C181     C      0.239420000000     0.738360000000     0.513180000000    -0.00354225 
C182     C      0.273690000000     0.733360000000     0.537580000000    -0.036844   
C183     C      0.303300000000     0.763230000000     0.539290000000    -0.0372126  
C184     C      0.299330000000     0.798800000000     0.516640000000    -0.00294818 
C185     C      0.265090000000     0.803770000000     0.492180000000    -0.0371866  
C186     C      0.235470000000     0.773900000000     0.490490000000    -0.0367732  
C187     C      0.330850000000     0.830540000000     0.518400000000     0.0370935  
C188     C      0.371900000000     0.820130000000     0.518540000000    -0.0811699  
C189     C      0.401570000000     0.849970000000     0.519660000000     0.0417063  
C190     C      0.390900000000     0.890990000000     0.520680000000    -0.131305   
C191     C      0.349800000000     0.901360000000     0.520900000000     0.0417283  
C192     C      0.320150000000     0.871490000000     0.519760000000    -0.0808205  
C193     C      0.645610000000     0.510020000000     0.148220000000    -0.135799   
C194     C      0.634920000000     0.508570000000     0.189210000000     0.0447712  
C195     C      0.664570000000     0.506800000000     0.219030000000    -0.0830222  
C196     C      0.705610000000     0.506340000000     0.208620000000     0.0380925  
C197     C      0.716330000000     0.507210000000     0.167660000000    -0.0822862  
C198     C      0.686690000000     0.509040000000     0.137810000000     0.0433949  
C199     C      0.737130000000     0.505720000000     0.240390000000    -0.00349141 
C200     C      0.733090000000     0.529720000000     0.275050000000    -0.0369447  
C201     C      0.762970000000     0.529750000000     0.304670000000    -0.036999   
C202     C      0.797600000000     0.505750000000     0.300370000000    -0.00333072 
C203     C      0.801600000000     0.481610000000     0.265790000000    -0.037      
C204     C      0.771690000000     0.481600000000     0.236120000000    -0.0369853  
C205     C      0.829600000000     0.506340000000     0.331680000000     0.0379441  
C206     C      0.819430000000     0.507050000000     0.372780000000    -0.0821733  
C207     C      0.849430000000     0.508810000000     0.402240000000     0.0433195  
C208     C      0.890370000000     0.509940000000     0.391310000000    -0.134816   
C209     C      0.900550000000     0.508670000000     0.350180000000     0.0442889  
C210     C      0.870510000000     0.506900000000     0.320730000000    -0.0823286  
C211     C      0.145870000000     0.524130000000     0.390840000000    -0.141694   
C212     C      0.187000000000     0.524200000000     0.401140000000     0.0431556  
C213     C      0.216610000000     0.525190000000     0.371210000000    -0.0838497  
C214     C      0.205870000000     0.526130000000     0.330240000000     0.0376114  
C215     C      0.164780000000     0.526330000000     0.319940000000    -0.0837837  
C216     C      0.135150000000     0.525360000000     0.349840000000     0.0431382  
C217     C      0.237380000000     0.526520000000     0.298390000000    -0.0038577  
C218     C      0.272310000000     0.550090000000     0.302830000000    -0.0370937  
C219     C      0.302090000000     0.550100000000     0.273040000000    -0.0370002  
C220     C      0.297660000000     0.526540000000     0.238110000000    -0.00388303 
C221     C      0.262680000000     0.503070000000     0.233630000000    -0.0373509  
C222     C      0.232910000000     0.503060000000     0.263400000000    -0.0373629  
C223     C      0.329520000000     0.526160000000     0.206600000000     0.0376409  
C224     C      0.370480000000     0.525240000000     0.217350000000    -0.0838514  
C225     C      0.400420000000     0.524270000000     0.187730000000     0.0431259  
C226     C      0.390120000000     0.524180000000     0.146610000000    -0.141659   
C227     C      0.349120000000     0.525400000000     0.135880000000     0.0431028  
C228     C      0.319210000000     0.526350000000     0.165510000000    -0.0838335  
C229     C      0.147320000000     0.509620000000     0.646500000000    -0.135719   
C230     C      0.188440000000     0.509570000000     0.636180000000     0.0444968  
C231     C      0.218040000000     0.507820000000     0.666100000000    -0.0827026  
C232     C      0.207240000000     0.506050000000     0.707020000000     0.0380268  
C233     C      0.166160000000     0.505500000000     0.717300000000    -0.0824656  
C234     C      0.136570000000     0.507270000000     0.687430000000     0.0435576  
C235     C      0.238640000000     0.505510000000     0.738930000000    -0.00352558 
C236     C      0.273830000000     0.482370000000     0.734330000000    -0.0369335  
C237     C      0.303500000000     0.482340000000     0.764240000000    -0.0370674  
C238     C      0.298620000000     0.505430000000     0.799420000000    -0.00328757 
C239     C      0.263400000000     0.528480000000     0.804040000000    -0.0371058  
C240     C      0.233780000000     0.528530000000     0.774150000000    -0.0369019  
C241     C      0.330310000000     0.505950000000     0.831040000000     0.0378878  
C242     C      0.371270000000     0.508000000000     0.820480000000    -0.0819338  
C243     C      0.401000000000     0.509770000000     0.850260000000     0.0430696  
C244     C      0.390460000000     0.509510000000     0.891320000000    -0.134812   
C245     C      0.349480000000     0.506860000000     0.901830000000     0.0443887  
C246     C      0.319790000000     0.505130000000     0.872050000000    -0.0824625  
C247     C      0.891110000000     0.523120000000     0.647630000000    -0.131132   
C248     C      0.901800000000     0.523730000000     0.688640000000     0.0418058  
C249     C      0.872160000000     0.524520000000     0.718540000000    -0.0807339  
C250     C      0.831090000000     0.524770000000     0.708190000000     0.0371648  
C251     C      0.820360000000     0.524410000000     0.667220000000    -0.0809116  
C252     C      0.849990000000     0.523590000000     0.637300000000     0.0414841  
C253     C      0.799560000000     0.525070000000     0.740010000000    -0.00286767 
C254     C      0.803780000000     0.501140000000     0.774700000000    -0.0368238  
C255     C      0.774020000000     0.501130000000     0.804490000000    -0.0368614  
C256     C      0.739310000000     0.525050000000     0.800280000000    -0.00285594 
C257     C      0.735120000000     0.549060000000     0.765630000000    -0.0369337  
C258     C      0.764900000000     0.549070000000     0.735840000000    -0.0369179  
C259     C      0.707490000000     0.524730000000     0.831820000000     0.0371213  
C260     C      0.717860000000     0.524490000000     0.872880000000    -0.0806563  
C261     C      0.687970000000     0.523680000000     0.902540000000     0.0415835  
C262     C      0.646950000000     0.523050000000     0.891850000000    -0.130877   
C263     C      0.636610000000     0.523510000000     0.850740000000     0.041438   
C264     C      0.666520000000     0.524350000000     0.821110000000    -0.0808875  
C265     C      0.646200000000     0.647360000000     0.015990000000    -0.132053   
C266     C      0.635690000000     0.688420000000     0.015580000000     0.0414183  
C267     C      0.665480000000     0.718190000000     0.014850000000    -0.0821382  
C268     C      0.706500000000     0.707650000000     0.014530000000     0.0379514  
C269     C      0.717030000000     0.666630000000     0.014710000000    -0.0819448  
C270     C      0.687270000000     0.636850000000     0.015410000000     0.0415111  
C271     C      0.738200000000     0.739300000000     0.014310000000    -0.00747218 
C272     C      0.733960000000     0.773970000000     0.990330000000    -0.0324249  
C273     C      0.763740000000     0.803760000000     0.990290000000    -0.0325739  
C274     C      0.798440000000     0.799580000000     0.014230000000    -0.00716896 
C275     C      0.802660000000     0.764910000000     0.038200000000    -0.0364243  
C276     C      0.772910000000     0.735130000000     0.038240000000    -0.0363483  
C277     C      0.830070000000     0.831300000000     0.014360000000     0.037903   
C278     C      0.819510000000     0.872310000000     0.014670000000    -0.0814331  
C279     C      0.849260000000     0.902110000000     0.015360000000     0.0413282  
C280     C      0.890340000000     0.891610000000     0.015730000000    -0.130726   
C281     C      0.900860000000     0.850550000000     0.015130000000     0.0414544  
C282     C      0.871100000000     0.820780000000     0.014480000000    -0.0814382  
C283     C      0.646520000000     0.391190000000     0.029280000000    -0.135426   
C284     C      0.687410000000     0.402130000000     0.031580000000     0.0427798  
C285     C      0.717410000000     0.372670000000     0.033440000000    -0.0822941  
C286     C      0.707300000000     0.331550000000     0.033060000000     0.0368372  
C287     C      0.666430000000     0.320570000000     0.031340000000    -0.0824362  
C288     C      0.636380000000     0.350030000000     0.029490000000     0.0437221  
C289     C      0.739320000000     0.300270000000     0.033670000000    -0.00239733 
C290     C      0.774470000000     0.305130000000     0.010540000000    -0.0409083  
C291     C      0.804360000000     0.275510000000     0.010520000000    -0.0410147  
C292     C      0.799810000000     0.240300000000     0.033610000000    -0.00228474 
C293     C      0.764740000000     0.235480000000     0.056880000000    -0.0375     
C294     C      0.734830000000     0.265140000000     0.056920000000    -0.0374726  
C295     C      0.831320000000     0.208510000000     0.032880000000     0.0367676  
C296     C      0.872380000000     0.218870000000     0.033430000000    -0.0823468  
C297     C      0.902040000000     0.189050000000     0.031530000000     0.0437207  
C298     C      0.891330000000     0.148120000000     0.028970000000    -0.134554   
C299     C      0.850230000000     0.137760000000     0.028930000000     0.0424118  
C300     C      0.820590000000     0.167600000000     0.030870000000    -0.0818847  
C301     C      0.389650000000     0.646410000000     0.028200000000    -0.135312   
C302     C      0.348690000000     0.635720000000     0.030490000000     0.0437629  
C303     C      0.318870000000     0.665380000000     0.032270000000    -0.082676   
C304     C      0.329240000000     0.706440000000     0.031870000000     0.0369205  
C305     C      0.370170000000     0.717160000000     0.030110000000    -0.0818892  
C306     C      0.400020000000     0.687510000000     0.028300000000     0.0426873  
C307     C      0.297460000000     0.737960000000     0.032560000000    -0.00221791 
C308     C      0.262340000000     0.733500000000     0.009320000000    -0.0409228  
C309     C      0.232710000000     0.763390000000     0.009350000000    -0.0409113  
C310     C      0.237480000000     0.798450000000     0.032630000000    -0.00214518 
C311     C      0.272520000000     0.802850000000     0.056030000000    -0.0372437  
C312     C      0.302190000000     0.772940000000     0.055990000000    -0.0372463  
C313     C      0.206180000000     0.830460000000     0.032070000000     0.0368718  
C314     C      0.165060000000     0.820340000000     0.032280000000    -0.0819958  
C315     C      0.135590000000     0.850340000000     0.030540000000     0.0425862  
C316     C      0.146530000000     0.891250000000     0.028530000000    -0.134538   
C317     C      0.187680000000     0.901390000000     0.028880000000     0.0438057  
C318     C      0.217150000000     0.871350000000     0.030610000000    -0.0820319  
C319     C      0.146730000000     0.146820000000     0.014090000000    -0.141741   
C320     C      0.136370000000     0.187920000000     0.013090000000     0.0427701  
C321     C      0.166270000000     0.217570000000     0.012100000000    -0.0848373  
C322     C      0.207260000000     0.206890000000     0.012100000000     0.0382901  
C323     C      0.217640000000     0.165840000000     0.012810000000    -0.0846692  
C324     C      0.187770000000     0.136160000000     0.013760000000     0.0427364  
C325     C      0.239070000000     0.238450000000     0.011740000000    -0.0084235  
C326     C      0.235060000000     0.272920000000     0.987440000000    -0.0327897  
C327     C      0.264860000000     0.302700000000     0.987390000000    -0.0328766  
C328     C      0.299370000000     0.298710000000     0.011640000000    -0.00840611 
C329     C      0.303400000000     0.264190000000     0.035880000000    -0.0370198  
C330     C      0.273620000000     0.234430000000     0.035920000000    -0.0369932  
C331     C      0.330940000000     0.330510000000     0.011920000000     0.038242   
C332     C      0.320280000000     0.371500000000     0.011850000000    -0.0848594  
C333     C      0.349940000000     0.401390000000     0.012800000000     0.0427773  
C334     C      0.391040000000     0.391020000000     0.013820000000    -0.141945   
C335     C      0.401680000000     0.349980000000     0.013550000000     0.0427063  
C336     C      0.372000000000     0.320120000000     0.012640000000    -0.0847003  
C337     C      0.647020000000     0.026710000000     0.646910000000    -0.13484    
C338     C      0.636500000000     0.026170000000     0.687970000000     0.0420848  
C339     C      0.666280000000     0.026140000000     0.717740000000    -0.0809474  
C340     C      0.707290000000     0.026650000000     0.707190000000     0.034713   
C341     C      0.717830000000     0.027810000000     0.666180000000    -0.0816274  
C342     C      0.688070000000     0.027880000000     0.636400000000     0.0431969  
C343     C      0.738950000000     0.025330000000     0.738810000000     0.00312006 
C344     C      0.734930000000     0.048030000000     0.774350000000    -0.0418113  
C345     C      0.764560000000     0.046420000000     0.804230000000    -0.0318763  
C346     C      0.798860000000     0.022060000000     0.799280000000    -0.0127841  
C347     C      0.802870000000     0.999380000000     0.763730000000    -0.0208656  
C348     C      0.773270000000     0.001000000000     0.733850000000    -0.0526355  
C349     C      0.830430000000     0.020430000000     0.831000000000     0.0401137  
C350     C      0.819790000000     0.019140000000     0.871970000000    -0.0825044  
C351     C      0.849490000000     0.018070000000     0.901810000000     0.041965   
C352     C      0.890580000000     0.018310000000     0.891370000000    -0.131556   
C353     C      0.901180000000     0.019300000000     0.850340000000     0.0421889  
C354     C      0.871460000000     0.020350000000     0.820540000000    -0.0828507  
C355     C      0.146990000000     0.026010000000     0.891430000000    -0.135239   
C356     C      0.188090000000     0.026330000000     0.901810000000     0.0444718  
C357     C      0.217740000000     0.026170000000     0.871910000000    -0.0830774  
C358     C      0.207030000000     0.025720000000     0.830940000000     0.038926   
C359     C      0.165980000000     0.026020000000     0.820550000000    -0.0830896  
C360     C      0.136320000000     0.026190000000     0.850410000000     0.0432906  
C361     C      0.238530000000     0.024320000000     0.799160000000    -0.00772025 
C362     C      0.273740000000     0.047590000000     0.802630000000    -0.036331   
C363     C      0.303500000000     0.045950000000     0.772880000000    -0.0364818  
C364     C      0.298720000000     0.020990000000     0.738990000000    -0.00751037 
C365     C      0.263490000000     0.997750000000     0.735500000000    -0.0325869  
C366     C      0.233750000000     0.999380000000     0.765250000000    -0.0323924  
C367     C      0.330340000000     0.019300000000     0.707330000000     0.038052   
C368     C      0.371340000000     0.018580000000     0.717870000000    -0.0821321  
C369     C      0.401090000000     0.017530000000     0.688110000000     0.0417312  
C370     C      0.390550000000     0.017220000000     0.647050000000    -0.132276   
C371     C      0.349480000000     0.017590000000     0.636550000000     0.041574   
C372     C      0.319750000000     0.018610000000     0.666340000000    -0.0822772  
C373     C      0.146480000000     0.016180000000     0.146980000000    -0.142562   
C374     C      0.187520000000     0.016800000000     0.136380000000     0.0431115  
C375     C      0.217320000000     0.017840000000     0.166100000000    -0.0852534  
C376     C      0.206850000000     0.018270000000     0.207130000000     0.0385194  
C377     C      0.165870000000     0.017220000000     0.217760000000    -0.0849774  
C378     C      0.136030000000     0.016160000000     0.188060000000     0.0429661  
C379     C      0.238550000000     0.020120000000     0.238690000000    -0.00864924 
C380     C      0.274060000000     0.997330000000     0.234930000000    -0.0325427  
C381     C      0.303940000000     0.999210000000     0.264520000000    -0.0329278  
C382     C      0.299010000000     0.023920000000     0.298580000000    -0.00795681 
C383     C      0.263520000000     0.046730000000     0.302340000000    -0.0370189  
C384     C      0.233640000000     0.044860000000     0.272730000000    -0.0367518  
C385     C      0.330630000000     0.025530000000     0.330230000000     0.0384656  
C386     C      0.371640000000     0.026530000000     0.319690000000    -0.0837829  
C387     C      0.401410000000     0.026880000000     0.349460000000     0.0439656  
C388     C      0.390870000000     0.026150000000     0.390520000000    -0.135432   
C389     C      0.349810000000     0.025770000000     0.401030000000     0.0428532  
C390     C      0.320060000000     0.025470000000     0.371240000000    -0.0829335  
C391     C      0.890950000000     0.026280000000     0.148020000000    -0.134746   
C392     C      0.849870000000     0.026040000000     0.137530000000     0.0428382  
C393     C      0.820130000000     0.025800000000     0.167320000000    -0.0826872  
C394     C      0.830710000000     0.025780000000     0.208330000000     0.0386317  
C395     C      0.871720000000     0.026640000000     0.218850000000    -0.0831926  
C396     C      0.901490000000     0.026920000000     0.189080000000     0.0441458  
C397     C      0.799080000000     0.024230000000     0.239990000000    -0.00767726 
C398     C      0.763630000000     0.047110000000     0.236240000000    -0.0367539  
C399     C      0.733740000000     0.045270000000     0.265830000000    -0.0365754  
C400     C      0.738590000000     0.020500000000     0.299860000000    -0.00840311 
C401     C      0.774060000000     0.997650000000     0.303620000000    -0.0323197  
C402     C      0.803950000000     0.999500000000     0.274030000000    -0.0326067  
C403     C      0.706860000000     0.018660000000     0.331400000000     0.0387142  
C404     C      0.665880000000     0.017660000000     0.320740000000    -0.0848608  
C405     C      0.636030000000     0.016560000000     0.350420000000     0.0431003  
C406     C      0.646450000000     0.016490000000     0.391510000000    -0.142636   
C407     C      0.687480000000     0.017100000000     0.402130000000     0.0433534  
C408     C      0.717310000000     0.018170000000     0.372440000000    -0.0851463  
C409     C      0.028100000000     0.147690000000     0.891630000000    -0.134544   
C410     C      0.029410000000     0.136860000000     0.850670000000     0.0426661  
C411     C      0.031170000000     0.166390000000     0.820740000000    -0.0820263  
C412     C      0.031680000000     0.207470000000     0.830990000000     0.0368381  
C413     C      0.030960000000     0.218330000000     0.871920000000    -0.0820652  
C414     C      0.029190000000     0.188800000000     0.901900000000     0.0435729  
C415     C      0.032230000000     0.238830000000     0.799050000000    -0.00225557 
C416     C      0.008360000000     0.234460000000     0.764330000000    -0.0409378  
C417     C      0.008410000000     0.264060000000     0.734430000000    -0.0409949  
C418     C      0.032310000000     0.298780000000     0.738540000000    -0.00234365 
C419     C      0.056270000000     0.303150000000     0.773210000000    -0.0373605  
C420     C      0.056230000000     0.273500000000     0.803130000000    -0.0373444  
C421     C      0.031780000000     0.330490000000     0.706940000000     0.0369188  
C422     C      0.031490000000     0.319980000000     0.665920000000    -0.0828504  
C423     C      0.029740000000     0.349720000000     0.636190000000     0.0439718  
C424     C      0.028160000000     0.390730000000     0.646770000000    -0.13557    
C425     C      0.029010000000     0.401250000000     0.687840000000     0.0426541  
C426     C      0.030810000000     0.371470000000     0.717550000000    -0.0819977  
C427     C      0.014710000000     0.891400000000     0.891330000000    -0.130655   
C428     C      0.014660000000     0.901850000000     0.850240000000     0.0412063  
C429     C      0.014010000000     0.872020000000     0.820510000000    -0.08155    
C430     C      0.013410000000     0.831020000000     0.831110000000     0.0377827  
C431     C      0.013200000000     0.820550000000     0.872140000000    -0.0812889  
C432     C      0.013820000000     0.850350000000     0.901890000000     0.0412576  
C433     C      0.013320000000     0.799280000000     0.799490000000    -0.0071942  
C434     C      0.989690000000     0.803600000000     0.764590000000    -0.0326381  
C435     C      0.989820000000     0.773820000000     0.734800000000    -0.0324479  
C436     C      0.013580000000     0.739020000000     0.739200000000    -0.00750844 
C437     C      0.037180000000     0.734700000000     0.774120000000    -0.0363124  
C438     C      0.037050000000     0.764460000000     0.803900000000    -0.0365431  
C439     C      0.013910000000     0.707400000000     0.707460000000     0.0378921  
C440     C      0.014580000000     0.717990000000     0.666460000000    -0.0820259  
C441     C      0.015370000000     0.688260000000     0.636640000000     0.0412202  
C442     C      0.015490000000     0.647170000000     0.647100000000    -0.131843   
C443     C      0.014580000000     0.636620000000     0.688150000000     0.0413685  
C444     C      0.013820000000     0.666370000000     0.717940000000    -0.0819338  
C445     C      0.027780000000     0.891480000000     0.147510000000    -0.134424   
C446     C      0.029520000000     0.850550000000     0.136630000000     0.0425939  
C447     C      0.031260000000     0.820590000000     0.166140000000    -0.0820232  
C448     C      0.031340000000     0.830790000000     0.207240000000     0.0368757  
C449     C      0.030180000000     0.871700000000     0.218150000000    -0.0820415  
C450     C      0.028430000000     0.901700000000     0.188640000000     0.0436721  
C451     C      0.031900000000     0.798820000000     0.238570000000    -0.00217449 
C452     C      0.008380000000     0.763890000000     0.233980000000    -0.0409442  
C453     C      0.008410000000     0.734000000000     0.263600000000    -0.0408849  
C454     C      0.031940000000     0.738310000000     0.298540000000    -0.00230029 
C455     C      0.055580000000     0.773170000000     0.303110000000    -0.0372045  
C456     C      0.055570000000     0.803090000000     0.273460000000    -0.0373499  
C457     C      0.031360000000     0.706750000000     0.330280000000     0.0369433  
C458     C      0.031490000000     0.665710000000     0.319820000000    -0.0827292  
C459     C      0.029750000000     0.636010000000     0.349600000000     0.0438742  
C460     C      0.027760000000     0.646630000000     0.390580000000    -0.1352     
C461     C      0.028150000000     0.687720000000     0.401040000000     0.042499   
C462     C      0.029940000000     0.717410000000     0.371230000000    -0.0818961  
C463     C      0.012860000000     0.391260000000     0.391480000000    -0.142013   
C464     C      0.012410000000     0.350220000000     0.402080000000     0.0428897  
C465     C      0.011560000000     0.320390000000     0.372370000000    -0.0847816  
C466     C      0.011070000000     0.330820000000     0.331330000000     0.0383026  
C467     C      0.011150000000     0.371820000000     0.320700000000    -0.0849202  
C468     C      0.012040000000     0.401680000000     0.350390000000     0.0427546  
C469     C      0.010900000000     0.299040000000     0.299730000000    -0.00841906 
C470     C      0.035050000000     0.264480000000     0.303880000000    -0.0370348  
C471     C      0.035170000000     0.234720000000     0.274100000000    -0.0369182  
C472     C      0.011150000000     0.238770000000     0.239440000000    -0.00839625 
C473     C      0.986950000000     0.273300000000     0.235310000000    -0.0328096  
C474     C      0.986820000000     0.303080000000     0.265110000000    -0.0328085  
C475     C      0.011560000000     0.207180000000     0.207660000000     0.0382809  
C476     C      0.012140000000     0.166140000000     0.218090000000    -0.0845876  
C477     C      0.013130000000     0.136430000000     0.188270000000     0.0427079  
C478     C      0.013620000000     0.147030000000     0.147220000000    -0.141581   
C479     C      0.012760000000     0.188120000000     0.136800000000     0.0426996  
C480     C      0.011730000000     0.217810000000     0.166660000000    -0.0847564  
Eu1      Eu     0.018220000000     0.018890000000     0.090930000000     3.44803    
Eu2      Eu     0.018600000000     0.947640000000     0.019520000000     3.01378    
Eu3      Eu     0.018380000000     0.090960000000     0.018960000000     3.44534    
Eu4      Eu     0.946800000000     0.019740000000     0.019640000000     3.01775    
Eu5      Eu     0.090220000000     0.018780000000     0.018860000000     3.4611     
Eu6      Eu     0.018770000000     0.019610000000     0.947580000000     3.02028    
Eu7      Eu     0.017910000000     0.519510000000     0.447560000000     3.45873    
Eu8      Eu     0.018970000000     0.590870000000     0.518870000000     3.01352    
Eu9      Eu     0.018070000000     0.447560000000     0.519590000000     3.46598    
Eu10     Eu     0.946830000000     0.519090000000     0.519190000000     3.05073    
Eu11     Eu     0.090240000000     0.519400000000     0.519300000000     3.50859    
Eu12     Eu     0.019080000000     0.518950000000     0.590930000000     3.02902    
Eu13     Eu     0.518160000000     0.018920000000     0.447540000000     3.45842    
Eu14     Eu     0.446810000000     0.019330000000     0.518850000000     3.01501    
Eu15     Eu     0.590110000000     0.019050000000     0.519590000000     3.4593     
Eu16     Eu     0.518920000000     0.947530000000     0.518860000000     3.04923    
Eu17     Eu     0.517970000000     0.090920000000     0.519590000000     3.50231    
Eu18     Eu     0.518740000000     0.019450000000     0.590900000000     3.02529    
Eu19     Eu     0.519070000000     0.447540000000     0.018970000000     3.46354    
Eu20     Eu     0.590200000000     0.519080000000     0.019810000000     3.02095    
Eu21     Eu     0.446880000000     0.519360000000     0.018690000000     3.45793    
Eu22     Eu     0.518530000000     0.518860000000     0.947570000000     3.05181    
Eu23     Eu     0.518580000000     0.519590000000     0.090980000000     3.50844    
Eu24     Eu     0.518070000000     0.590910000000     0.019510000000     3.02542    
H1       H      0.981510000000     0.982200000000     0.086170000000    -0.172781   
H2       H      0.077340000000     0.077950000000     0.077900000000     0.408478   
H3       H      0.981570000000     0.086370000000     0.982260000000    -0.169943   
H4       H      0.085290000000     0.982010000000     0.982250000000    -0.174527   
H5       H      0.981260000000     0.556340000000     0.452340000000    -0.172449   
H6       H      0.076840000000     0.460440000000     0.460200000000     0.410612   
H7       H      0.981600000000     0.452430000000     0.556510000000    -0.175633   
H8       H      0.085630000000     0.556040000000     0.556090000000    -0.18434    
H9       H      0.481560000000     0.982190000000     0.452310000000    -0.17539    
H10      H      0.577020000000     0.078080000000     0.460580000000     0.411007   
H11      H      0.585400000000     0.982320000000     0.556240000000    -0.174503   
H12      H      0.481280000000     0.085960000000     0.556220000000    -0.18381    
H13      H      0.555990000000     0.452390000000     0.982520000000    -0.17573    
H14      H      0.459650000000     0.460440000000     0.077750000000     0.410145   
H15      H      0.451620000000     0.556090000000     0.981930000000    -0.172242   
H16      H      0.555320000000     0.556230000000     0.086240000000    -0.185051   
H17      H      0.521890000000     0.340980000000     0.105450000000     0.025795   
H18      H      0.521340000000     0.289210000000     0.157360000000     0.0477035  
H19      H      0.520270000000     0.381240000000     0.249370000000     0.0480613  
H20      H      0.521580000000     0.433150000000     0.197630000000     0.0259884  
H21      H      0.475910000000     0.261750000000     0.208100000000     0.0357605  
H22      H      0.473680000000     0.209890000000     0.260090000000     0.0365637  
H23      H      0.560190000000     0.276890000000     0.330600000000     0.0363091  
H24      H      0.562420000000     0.328750000000     0.278610000000     0.0370024  
H25      H      0.515890000000     0.157410000000     0.289260000000     0.0476855  
H26      H      0.514730000000     0.105450000000     0.340970000000     0.0258674  
H27      H      0.514410000000     0.197550000000     0.433220000000     0.026076   
H28      H      0.514820000000     0.249360000000     0.381350000000     0.0480706  
H29      H      0.524710000000     0.841310000000     0.432590000000     0.0283956  
H30      H      0.523460000000     0.789420000000     0.380860000000     0.048472   
H31      H      0.523840000000     0.881160000000     0.288540000000     0.0488844  
H32      H      0.525820000000     0.933220000000     0.340140000000     0.0288728  
H33      H      0.476470000000     0.763350000000     0.330630000000     0.0372234  
H34      H      0.472260000000     0.711410000000     0.278840000000     0.0369872  
H35      H      0.560400000000     0.775410000000     0.207550000000     0.0373838  
H36      H      0.564610000000     0.827350000000     0.259340000000     0.037566   
H37      H      0.513050000000     0.657610000000     0.249740000000     0.0483868  
H38      H      0.511120000000     0.605480000000     0.198210000000     0.0276345  
H39      H      0.512310000000     0.697270000000     0.105640000000     0.0282116  
H40      H      0.513500000000     0.749230000000     0.157300000000     0.0485738  
H41      H      0.516840000000     0.840810000000     0.605260000000     0.0288276  
H42      H      0.517760000000     0.789050000000     0.657160000000     0.0482488  
H43      H      0.515660000000     0.881030000000     0.749210000000     0.0490857  
H44      H      0.515490000000     0.932960000000     0.697460000000     0.029971   
H45      H      0.474940000000     0.759860000000     0.709140000000     0.0372156  
H46      H      0.476470000000     0.707880000000     0.761030000000     0.0373559  
H47      H      0.562300000000     0.778270000000     0.829030000000     0.0376097  
H48      H      0.560760000000     0.830250000000     0.777140000000     0.0378118  
H49      H      0.521540000000     0.657090000000     0.789060000000     0.0481906  
H50      H      0.521610000000     0.605220000000     0.840880000000     0.0287654  
H51      H      0.520190000000     0.697490000000     0.932960000000     0.0298482  
H52      H      0.519370000000     0.749180000000     0.880990000000     0.0489997  
H53      H      0.525380000000     0.198170000000     0.605450000000     0.0278029  
H54      H      0.523730000000     0.249700000000     0.657580000000     0.0485443  
H55      H      0.523480000000     0.157270000000     0.749210000000     0.0485441  
H56      H      0.524400000000     0.105600000000     0.697250000000     0.0282025  
H57      H      0.564910000000     0.278670000000     0.711180000000     0.0371176  
H58      H      0.561120000000     0.330460000000     0.763150000000     0.0373254  
H59      H      0.473060000000     0.259450000000     0.827570000000     0.0374471  
H60      H      0.476850000000     0.207660000000     0.775600000000     0.0372102  
H61      H      0.514400000000     0.380830000000     0.789430000000     0.0485431  
H62      H      0.513340000000     0.432570000000     0.841320000000     0.0284134  
H63      H      0.512360000000     0.340120000000     0.933240000000     0.0288269  
H64      H      0.514170000000     0.288520000000     0.881180000000     0.0490246  
H65      H      0.840310000000     0.432900000000     0.512870000000     0.0284322  
H66      H      0.788330000000     0.381210000000     0.513010000000     0.0484349  
H67      H      0.879980000000     0.288800000000     0.513590000000     0.0488743  
H68      H      0.932110000000     0.340340000000     0.512680000000     0.0288598  
H69      H      0.761070000000     0.330710000000     0.558770000000     0.0372753  
H70      H      0.709150000000     0.278830000000     0.561760000000     0.0370661  
H71      H      0.775140000000     0.207810000000     0.474900000000     0.0364275  
H72      H      0.827060000000     0.259720000000     0.471880000000     0.0373847  
H73      H      0.656220000000     0.249410000000     0.520130000000     0.0480689  
H74      H      0.604320000000     0.197670000000     0.522220000000     0.0258756  
H75      H      0.696520000000     0.105500000000     0.522590000000     0.0260649  
H76      H      0.748260000000     0.157410000000     0.521230000000     0.0484295  
H77      H      0.932920000000     0.697700000000     0.520100000000     0.0298429  
H78      H      0.881230000000     0.749610000000     0.517840000000     0.0488722  
H79      H      0.788830000000     0.657970000000     0.519940000000     0.0481471  
H80      H      0.840400000000     0.605870000000     0.521440000000     0.0286828  
H81      H      0.828800000000     0.779510000000     0.559540000000     0.0374291  
H82      H      0.777120000000     0.831620000000     0.556620000000     0.0374119  
H83      H      0.710050000000     0.760360000000     0.470790000000     0.0373236  
H84      H      0.761770000000     0.708240000000     0.473670000000     0.0372727  
H85      H      0.749550000000     0.881950000000     0.510560000000     0.0490249  
H86      H      0.697670000000     0.933780000000     0.510760000000     0.0290773  
H87      H      0.605700000000     0.841410000000     0.512720000000     0.0285057  
H88      H      0.657710000000     0.789770000000     0.513240000000     0.0485811  
H89      H      0.104350000000     0.340790000000     0.522220000000     0.0257542  
H90      H      0.156200000000     0.289000000000     0.519970000000     0.0478026  
H91      H      0.248310000000     0.380950000000     0.519500000000     0.0482648  
H92      H      0.196610000000     0.432900000000     0.521010000000     0.0259491  
H93      H      0.209510000000     0.259910000000     0.561370000000     0.0370879  
H94      H      0.261400000000     0.208000000000     0.558350000000     0.0371539  
H95      H      0.326600000000     0.278230000000     0.470250000000     0.0368683  
H96      H      0.274700000000     0.330170000000     0.473290000000     0.0361123  
H97      H      0.288260000000     0.157120000000     0.512700000000     0.0480446  
H98      H      0.340250000000     0.105450000000     0.512690000000     0.0281566  
H99      H      0.432020000000     0.198030000000     0.511120000000     0.0279818  
H100     H      0.379870000000     0.249560000000     0.511890000000     0.0484862  
H101     H      0.197660000000     0.604760000000     0.509960000000     0.027834   
H102     H      0.249500000000     0.656600000000     0.509680000000     0.0484208  
H103     H      0.157650000000     0.748730000000     0.513590000000     0.0485347  
H104     H      0.105660000000     0.697070000000     0.513140000000     0.0282799  
H105     H      0.277310000000     0.706630000000     0.555940000000     0.037095   
H106     H      0.329000000000     0.758730000000     0.558880000000     0.03712    
H107     H      0.261440000000     0.830530000000     0.473870000000     0.0375197  
H108     H      0.209710000000     0.778410000000     0.470960000000     0.0370729  
H109     H      0.381170000000     0.788880000000     0.517050000000     0.0480914  
H110     H      0.432870000000     0.840750000000     0.519370000000     0.0287552  
H111     H      0.340360000000     0.932590000000     0.521840000000     0.029733   
H112     H      0.288780000000     0.880500000000     0.520290000000     0.0486355  
H113     H      0.603620000000     0.509020000000     0.198430000000     0.027844   
H114     H      0.655310000000     0.505570000000     0.250300000000     0.0484541  
H115     H      0.747700000000     0.507320000000     0.158650000000     0.048459   
H116     H      0.696140000000     0.510030000000     0.106590000000     0.0281348  
H117     H      0.707160000000     0.549160000000     0.278930000000     0.0370717  
H118     H      0.759270000000     0.549200000000     0.330610000000     0.0370739  
H119     H      0.827650000000     0.462350000000     0.261840000000     0.037209   
H120     H      0.775450000000     0.462360000000     0.210030000000     0.0371779  
H121     H      0.788220000000     0.506020000000     0.382240000000     0.0484569  
H122     H      0.840370000000     0.509450000000     0.433580000000     0.0284522  
H123     H      0.931730000000     0.509460000000     0.340580000000     0.0288436  
H124     H      0.879340000000     0.506810000000     0.289310000000     0.0486746  
H125     H      0.196490000000     0.523230000000     0.432340000000     0.0258964  
H126     H      0.247980000000     0.524530000000     0.380180000000     0.0479161  
H127     H      0.155470000000     0.527620000000     0.288680000000     0.0480092  
H128     H      0.103830000000     0.525580000000     0.340680000000     0.0260831  
H129     H      0.276420000000     0.568970000000     0.329130000000     0.0371738  
H130     H      0.328390000000     0.568990000000     0.277160000000     0.037028   
H131     H      0.258610000000     0.484080000000     0.207400000000     0.0358361  
H132     H      0.206680000000     0.484060000000     0.259330000000     0.0358205  
H133     H      0.379450000000     0.524590000000     0.248720000000     0.0479252  
H134     H      0.431620000000     0.523310000000     0.197230000000     0.0258875  
H135     H      0.339970000000     0.525610000000     0.104570000000     0.0260911  
H136     H      0.287960000000     0.527620000000     0.156200000000     0.0480241  
H137     H      0.197920000000     0.511360000000     0.605010000000     0.0276591  
H138     H      0.249420000000     0.508710000000     0.657180000000     0.048478   
H139     H      0.156820000000     0.503500000000     0.748500000000     0.0483325  
H140     H      0.105250000000     0.506890000000     0.696590000000     0.0282213  
H141     H      0.278250000000     0.463890000000     0.707800000000     0.0372801  
H142     H      0.330050000000     0.463840000000     0.760020000000     0.0373622  
H143     H      0.259020000000     0.547140000000     0.830450000000     0.0371574  
H144     H      0.207360000000     0.547240000000     0.778340000000     0.0369616  
H145     H      0.380360000000     0.509110000000     0.789160000000     0.0484833  
H146     H      0.432210000000     0.511760000000     0.840950000000     0.0283816  
H147     H      0.340160000000     0.506300000000     0.933100000000     0.0290392  
H148     H      0.288530000000     0.502940000000     0.881180000000     0.0486453  
H149     H      0.933110000000     0.523600000000     0.697840000000     0.029869   
H150     H      0.881450000000     0.525340000000     0.749810000000     0.0490811  
H151     H      0.788990000000     0.524110000000     0.658220000000     0.0482128  
H152     H      0.840520000000     0.523110000000     0.606070000000     0.028785   
H153     H      0.829800000000     0.481820000000     0.778550000000     0.0377654  
H154     H      0.777880000000     0.481800000000     0.830490000000     0.0376879  
H155     H      0.709040000000     0.568290000000     0.761750000000     0.037461   
H156     H      0.761000000000     0.568310000000     0.709770000000     0.037444   
H157     H      0.749130000000     0.525320000000     0.882170000000     0.0490047  
H158     H      0.697170000000     0.523550000000     0.933850000000     0.0299362  
H159     H      0.605390000000     0.523010000000     0.841270000000     0.0288507  
H160     H      0.657520000000     0.524040000000     0.789740000000     0.0482036  
H161     H      0.604420000000     0.697750000000     0.016050000000     0.0281492  
H162     H      0.656340000000     0.749520000000     0.015200000000     0.0476216  
H163     H      0.748340000000     0.657480000000     0.013910000000     0.048216   
H164     H      0.696610000000     0.605580000000     0.015490000000     0.0283188  
H165     H      0.707870000000     0.777830000000     0.971110000000     0.0376914  
H166     H      0.759830000000     0.829820000000     0.971040000000     0.038045   
H167     H      0.828710000000     0.761060000000     0.057480000000     0.0372678  
H168     H      0.776800000000     0.709120000000     0.057560000000     0.03713    
H169     H      0.788170000000     0.881430000000     0.015060000000     0.0480773  
H170     H      0.839930000000     0.933380000000     0.015830000000     0.0293015  
H171     H      0.932130000000     0.841230000000     0.015180000000     0.0293441  
H172     H      0.880260000000     0.789480000000     0.013670000000     0.0484674  
H173     H      0.696420000000     0.433490000000     0.031830000000     0.0280513  
H174     H      0.748580000000     0.382150000000     0.035380000000     0.0476502  
H175     H      0.657640000000     0.289150000000     0.030560000000     0.047843   
H176     H      0.605250000000     0.340410000000     0.027760000000     0.0273996  
H177     H      0.778570000000     0.331510000000     0.991770000000     0.0413552  
H178     H      0.830700000000     0.279850000000     0.991750000000     0.0415577  
H179     H      0.760590000000     0.208960000000     0.075430000000     0.0368812  
H180     H      0.708370000000     0.260740000000     0.075500000000     0.0369659  
H181     H      0.881650000000     0.250090000000     0.035560000000     0.0480001  
H182     H      0.933350000000     0.198240000000     0.031920000000     0.0287418  
H183     H      0.840770000000     0.106580000000     0.027020000000     0.027821   
H184     H      0.789230000000     0.158630000000     0.029950000000     0.0476621  
H185     H      0.339490000000     0.604410000000     0.030760000000     0.0276614  
H186     H      0.287630000000     0.656120000000     0.034200000000     0.0476637  
H187     H      0.379160000000     0.748520000000     0.029320000000     0.0482478  
H188     H      0.431210000000     0.696970000000     0.026590000000     0.0280756  
H189     H      0.258070000000     0.707240000000     0.990430000000     0.0411116  
H190     H      0.206400000000     0.759360000000     0.990470000000     0.0411654  
H191     H      0.276850000000     0.829230000000     0.074740000000     0.037411   
H192     H      0.328640000000     0.777030000000     0.074660000000     0.0374138  
H193     H      0.155590000000     0.789160000000     0.034010000000     0.0475767  
H194     H      0.104230000000     0.841320000000     0.030660000000     0.0279848  
H195     H      0.197310000000     0.932540000000     0.027360000000     0.0284855  
H196     H      0.248570000000     0.880150000000     0.029970000000     0.0484147  
H197     H      0.105130000000     0.197350000000     0.013300000000     0.0253873  
H198     H      0.157240000000     0.248930000000     0.012020000000     0.0469659  
H199     H      0.248920000000     0.156560000000     0.012260000000     0.0475203  
H200     H      0.196990000000     0.104870000000     0.014300000000     0.0253725  
H201     H      0.209110000000     0.276670000000     0.968010000000     0.03719    
H202     H      0.261110000000     0.328620000000     0.967930000000     0.0373464  
H203     H      0.329280000000     0.260480000000     0.055410000000     0.0353904  
H204     H      0.277350000000     0.208580000000     0.055490000000     0.035476   
H205     H      0.288920000000     0.380540000000     0.011770000000     0.0470224  
H206     H      0.340510000000     0.432630000000     0.012970000000     0.0254053  
H207     H      0.432970000000     0.340750000000     0.014110000000     0.0254131  
H208     H      0.381260000000     0.288830000000     0.012140000000     0.0475067  
H209     H      0.605240000000     0.025260000000     0.697290000000     0.028181   
H210     H      0.657150000000     0.024840000000     0.749040000000     0.0477693  
H211     H      0.749150000000     0.028830000000     0.657070000000     0.047569   
H212     H      0.697390000000     0.028540000000     0.605140000000     0.027819   
H213     H      0.709130000000     0.067490000000     0.778840000000     0.0386177  
H214     H      0.760860000000     0.064750000000     0.830980000000     0.0363022  
H215     H      0.828630000000     0.979850000000     0.759240000000     0.034826   
H216     H      0.776950000000     0.982630000000     0.707130000000     0.0440561  
H217     H      0.788440000000     0.018590000000     0.881030000000     0.0486352  
H218     H      0.840110000000     0.017150000000     0.933050000000     0.0290161  
H219     H      0.932460000000     0.019600000000     0.841060000000     0.0290089  
H220     H      0.880690000000     0.021800000000     0.789270000000     0.0482118  
H221     H      0.197530000000     0.026180000000     0.933040000000     0.0284203  
H222     H      0.249100000000     0.025540000000     0.880930000000     0.048794   
H223     H      0.156720000000     0.026320000000     0.789250000000     0.0477404  
H224     H      0.105010000000     0.026210000000     0.841190000000     0.0276893  
H225     H      0.278090000000     0.067540000000     0.828090000000     0.0372198  
H226     H      0.329990000000     0.064720000000     0.776150000000     0.0370313  
H227     H      0.259170000000     0.977760000000     0.710070000000     0.0376855  
H228     H      0.207290000000     0.980570000000     0.761990000000     0.0377205  
H229     H      0.380480000000     0.018500000000     0.749200000000     0.0481816  
H230     H      0.432360000000     0.017100000000     0.697430000000     0.0282359  
H231     H      0.340140000000     0.017440000000     0.605280000000     0.0280437  
H232     H      0.288430000000     0.019580000000     0.657200000000     0.0474964  
H233     H      0.196790000000     0.016900000000     0.105100000000     0.0251013  
H234     H      0.248600000000     0.019070000000     0.156870000000     0.04703    
H235     H      0.156800000000     0.016920000000     0.249110000000     0.0475283  
H236     H      0.104790000000     0.015500000000     0.197450000000     0.0252894  
H237     H      0.278510000000     0.977520000000     0.209380000000     0.0372017  
H238     H      0.330620000000     0.980750000000     0.261040000000     0.0374122  
H239     H      0.259050000000     0.066480000000     0.327930000000     0.0363733  
H240     H      0.206940000000     0.063290000000     0.276220000000     0.0354759  
H241     H      0.380760000000     0.027210000000     0.288370000000     0.0474688  
H242     H      0.432680000000     0.027390000000     0.340150000000     0.0273709  
H243     H      0.340470000000     0.025200000000     0.432290000000     0.0278296  
H244     H      0.288750000000     0.024300000000     0.380360000000     0.047902   
H245     H      0.840530000000     0.025550000000     0.106270000000     0.027812   
H246     H      0.788810000000     0.024750000000     0.158200000000     0.0479212  
H247     H      0.880860000000     0.027250000000     0.250180000000     0.0482693  
H248     H      0.932760000000     0.027330000000     0.198380000000     0.0285236  
H249     H      0.759210000000     0.066880000000     0.210660000000     0.0365098  
H250     H      0.707070000000     0.063750000000     0.262340000000     0.0358454  
H251     H      0.778470000000     0.977820000000     0.329160000000     0.0377943  
H252     H      0.830600000000     0.980990000000     0.277510000000     0.038014   
H253     H      0.656840000000     0.017410000000     0.289380000000     0.0478047  
H254     H      0.604790000000     0.015930000000     0.341010000000     0.0254439  
H255     H      0.696740000000     0.017130000000     0.433420000000     0.0254863  
H256     H      0.748580000000     0.019370000000     0.381680000000     0.0476263  
H257     H      0.028930000000     0.105540000000     0.841530000000     0.0280009  
H258     H      0.032340000000     0.156990000000     0.789510000000     0.0476288  
H259     H      0.030910000000     0.249730000000     0.880820000000     0.0481449  
H260     H      0.028260000000     0.198330000000     0.933090000000     0.0284514  
H261     H      0.989000000000     0.208460000000     0.760560000000     0.0413472  
H262     H      0.989100000000     0.260100000000     0.708430000000     0.0413159  
H263     H      0.075420000000     0.329300000000     0.777010000000     0.0372449  
H264     H      0.075370000000     0.277520000000     0.829250000000     0.037249   
H265     H      0.032810000000     0.288690000000     0.656740000000     0.0476684  
H266     H      0.029400000000     0.340410000000     0.604920000000     0.0275284  
H267     H      0.027910000000     0.432490000000     0.697200000000     0.0278912  
H268     H      0.030580000000     0.380560000000     0.748900000000     0.0479723  
H269     H      0.015370000000     0.933100000000     0.840880000000     0.0292061  
H270     H      0.014660000000     0.881110000000     0.789180000000     0.0478523  
H271     H      0.012170000000     0.789250000000     0.881340000000     0.0483516  
H272     H      0.013620000000     0.841060000000     0.933170000000     0.029365   
H273     H      0.970620000000     0.829770000000     0.760530000000     0.0377605  
H274     H      0.970840000000     0.777810000000     0.708550000000     0.0375363  
H275     H      0.056330000000     0.708580000000     0.778160000000     0.0369191  
H276     H      0.056100000000     0.760500000000     0.830090000000     0.0371807  
H277     H      0.015150000000     0.749330000000     0.657370000000     0.0476278  
H278     H      0.016090000000     0.697620000000     0.605380000000     0.0282325  
H279     H      0.014430000000     0.605340000000     0.697440000000     0.0282681  
H280     H      0.012750000000     0.657180000000     0.749230000000     0.0480861  
H281     H      0.029400000000     0.841460000000     0.105290000000     0.0279868  
H282     H      0.032780000000     0.789390000000     0.156710000000     0.0476143  
H283     H      0.029770000000     0.880550000000     0.249550000000     0.0483717  
H284     H      0.027140000000     0.932870000000     0.198210000000     0.0285197  
H285     H      0.989280000000     0.759970000000     0.207810000000     0.0412243  
H286     H      0.989340000000     0.707840000000     0.259460000000     0.0412459  
H287     H      0.074470000000     0.777150000000     0.329420000000     0.0372337  
H288     H      0.074450000000     0.829370000000     0.277640000000     0.0375434  
H289     H      0.033150000000     0.656500000000     0.288560000000     0.0477926  
H290     H      0.029780000000     0.604720000000     0.340330000000     0.0276858  
H291     H      0.026700000000     0.697110000000     0.432250000000     0.0281012  
H292     H      0.029370000000     0.748760000000     0.380280000000     0.0480579  
H293     H      0.012800000000     0.340950000000     0.433370000000     0.0254988  
H294     H      0.010930000000     0.289100000000     0.381600000000     0.0476412  
H295     H      0.011240000000     0.380890000000     0.289350000000     0.0469672  
H296     H      0.012350000000     0.432930000000     0.341000000000     0.0253864  
H297     H      0.054450000000     0.260730000000     0.329850000000     0.0355398  
H298     H      0.054670000000     0.208820000000     0.277920000000     0.0353892  
H299     H      0.967640000000     0.277080000000     0.209270000000     0.0372997  
H300     H      0.967430000000     0.329050000000     0.261260000000     0.037163   
H301     H      0.011460000000     0.156900000000     0.249390000000     0.0475189  
H302     H      0.013560000000     0.105140000000     0.197530000000     0.0254371  
H303     H      0.013090000000     0.197520000000     0.105560000000     0.0253565  
H304     H      0.011750000000     0.249160000000     0.157590000000     0.0470006  
O1       O      0.016230000000     0.127790000000     0.076910000000    -0.616335   
O2       O      0.022150000000     0.911000000000     0.077530000000    -0.561873   
O3       O      0.961240000000     0.024330000000     0.128610000000    -0.599753   
O4       O      0.076160000000     0.017040000000     0.127730000000    -0.617467   
O5       O      0.127070000000     0.016970000000     0.076740000000    -0.619282   
O6       O      0.910240000000     0.022660000000     0.077800000000    -0.561949   
O7       O      0.024300000000     0.961850000000     0.128460000000    -0.598967   
O8       O      0.015920000000     0.076790000000     0.127790000000    -0.616792   
O9       O      0.058380000000     0.980120000000     0.059060000000    -1.45418    
O10      O      0.979530000000     0.059240000000     0.059180000000    -1.45239    
O11      O      0.972810000000     0.973720000000     0.060760000000    -1.04666    
O12      O      0.060120000000     0.060660000000     0.060720000000    -1.61933    
O13      O      0.016820000000     0.910770000000     0.961620000000    -0.554217   
O14      O      0.024360000000     0.128580000000     0.961970000000    -0.599099   
O15      O      0.909770000000     0.961920000000     0.017720000000    -0.554498   
O16      O      0.127620000000     0.961640000000     0.024950000000    -0.599822   
O17      O      0.127190000000     0.076600000000     0.016460000000    -0.61845    
O18      O      0.910410000000     0.077950000000     0.023450000000    -0.561941   
O19      O      0.960860000000     0.018670000000     0.910750000000    -0.555393   
O20      O      0.076850000000     0.022400000000     0.910920000000    -0.562586   
O21      O      0.909890000000     0.018740000000     0.961720000000    -0.554469   
O22      O      0.127790000000     0.024060000000     0.961780000000    -0.601056   
O23      O      0.960640000000     0.910880000000     0.017850000000    -0.55447    
O24      O      0.961510000000     0.128670000000     0.025050000000    -0.599646   
O25      O      0.076390000000     0.127680000000     0.016690000000    -0.616801   
O26      O      0.076560000000     0.910890000000     0.023040000000    -0.56143    
O27      O      0.016760000000     0.961720000000     0.910670000000    -0.554708   
O28      O      0.022610000000     0.077680000000     0.911060000000    -0.562832   
O29      O      0.058510000000     0.059070000000     0.980130000000    -1.45454    
O30      O      0.979220000000     0.980320000000     0.980090000000    -1.34983    
O31      O      0.972990000000     0.060920000000     0.973740000000    -1.04788    
O32      O      0.059850000000     0.973560000000     0.973620000000    -1.04599    
O33      O      0.015390000000     0.410700000000     0.461720000000    -0.619133   
O34      O      0.022590000000     0.627420000000     0.460740000000    -0.561305   
O35      O      0.960770000000     0.513620000000     0.410170000000    -0.599775   
O36      O      0.075680000000     0.521660000000     0.410480000000    -0.617185   
O37      O      0.126830000000     0.521730000000     0.461220000000    -0.621915   
O38      O      0.910060000000     0.515360000000     0.461270000000    -0.565304   
O39      O      0.023880000000     0.576430000000     0.409920000000    -0.60307    
O40      O      0.015450000000     0.461580000000     0.410730000000    -0.617994   
O41      O      0.058410000000     0.558170000000     0.479200000000    -1.4636     
O42      O      0.979180000000     0.479370000000     0.479540000000    -1.46028    
O43      O      0.972860000000     0.564890000000     0.477840000000    -1.05346    
O44      O      0.059770000000     0.477660000000     0.477580000000    -1.62957    
O45      O      0.017320000000     0.627810000000     0.576760000000    -0.555995   
O46      O      0.024390000000     0.410020000000     0.576560000000    -0.6035     
O47      O      0.910090000000     0.577080000000     0.520390000000    -0.559514   
O48      O      0.127920000000     0.576360000000     0.513770000000    -0.606852   
O49      O      0.126960000000     0.461440000000     0.520890000000    -0.623773   
O50      O      0.910090000000     0.461040000000     0.516490000000    -0.564357   
O51      O      0.961320000000     0.520760000000     0.628010000000    -0.555312   
O52      O      0.077280000000     0.515290000000     0.627280000000    -0.563162   
O53      O      0.910180000000     0.521100000000     0.577230000000    -0.559362   
O54      O      0.128000000000     0.513230000000     0.576200000000    -0.605719   
O55      O      0.961180000000     0.627900000000     0.520150000000    -0.554013   
O56      O      0.960910000000     0.410050000000     0.514520000000    -0.600112   
O57      O      0.075910000000     0.410590000000     0.521110000000    -0.618727   
O58      O      0.077140000000     0.627380000000     0.515750000000    -0.561099   
O59      O      0.017610000000     0.576880000000     0.627760000000    -0.558064   
O60      O      0.022650000000     0.460860000000     0.627520000000    -0.563086   
O61      O      0.058500000000     0.479300000000     0.558190000000    -1.46638    
O62      O      0.979620000000     0.558420000000     0.558510000000    -1.36058    
O63      O      0.973020000000     0.477860000000     0.565050000000    -1.05241    
O64      O      0.060270000000     0.564750000000     0.564690000000    -1.04864    
O65      O      0.627000000000     0.017260000000     0.461740000000    -0.618784   
O66      O      0.410210000000     0.022420000000     0.460730000000    -0.561615   
O67      O      0.523720000000     0.961910000000     0.409910000000    -0.599884   
O68      O      0.516020000000     0.076860000000     0.410720000000    -0.61722    
O69      O      0.515900000000     0.127790000000     0.461690000000    -0.62179    
O70      O      0.521990000000     0.910980000000     0.460780000000    -0.565428   
O71      O      0.461170000000     0.024400000000     0.409900000000    -0.602622   
O72      O      0.576110000000     0.017140000000     0.410740000000    -0.618675   
O73      O      0.479290000000     0.059140000000     0.479300000000    -1.46118    
O74      O      0.558520000000     0.980170000000     0.479290000000    -1.45714    
O75      O      0.473000000000     0.973540000000     0.477700000000    -1.05229    
O76      O      0.559840000000     0.060800000000     0.477800000000    -1.62942    
O77      O      0.409900000000     0.017850000000     0.576730000000    -0.556643   
O78      O      0.627690000000     0.024700000000     0.576610000000    -0.602754   
O79      O      0.461130000000     0.910520000000     0.520160000000    -0.559268   
O80      O      0.460840000000     0.128370000000     0.514030000000    -0.60539    
O81      O      0.575830000000     0.127870000000     0.521550000000    -0.622342   
O82      O      0.577130000000     0.911070000000     0.515720000000    -0.564315   
O83      O      0.517290000000     0.961520000000     0.627740000000    -0.554545   
O84      O      0.521590000000     0.077500000000     0.627540000000    -0.563029   
O85      O      0.517420000000     0.910600000000     0.576740000000    -0.558909   
O86      O      0.523310000000     0.128460000000     0.576680000000    -0.606059   
O87      O      0.410050000000     0.961360000000     0.520180000000    -0.553844   
O88      O      0.627870000000     0.962140000000     0.513980000000    -0.599593   
O89      O      0.626850000000     0.077000000000     0.521550000000    -0.618143   
O90      O      0.410050000000     0.077340000000     0.515750000000    -0.561055   
O91      O      0.460840000000     0.017950000000     0.627720000000    -0.557929   
O92      O      0.576830000000     0.022690000000     0.627540000000    -0.562913   
O93      O      0.558260000000     0.059240000000     0.558420000000    -1.46246    
O94      O      0.479410000000     0.979940000000     0.558360000000    -1.35886    
O95      O      0.560010000000     0.973670000000     0.564800000000    -1.05337    
O96      O      0.472770000000     0.060520000000     0.564780000000    -1.04928    
O97      O      0.410170000000     0.461360000000     0.016350000000    -0.617861   
O98      O      0.626920000000     0.461130000000     0.023580000000    -0.56285    
O99      O      0.514130000000     0.409890000000     0.961920000000    -0.600794   
O100     O      0.520760000000     0.410720000000     0.076920000000    -0.617934   
O101     O      0.520390000000     0.461680000000     0.127850000000    -0.62231    
O102     O      0.516020000000     0.460760000000     0.911000000000    -0.565992   
O103     O      0.576150000000     0.410110000000     0.025390000000    -0.602269   
O104     O      0.461260000000     0.410560000000     0.016370000000    -0.618733   
O105     O      0.557520000000     0.479480000000     0.059370000000    -1.46512    
O106     O      0.478910000000     0.479210000000     0.980030000000    -1.45981    
O107     O      0.564470000000     0.477810000000     0.973860000000    -1.05232    
O108     O      0.476990000000     0.477650000000     0.060620000000    -1.62904    
O109     O      0.626950000000     0.577050000000     0.018220000000    -0.557472   
O110     O      0.409120000000     0.576230000000     0.024500000000    -0.602966   
O111     O      0.576560000000     0.520880000000     0.910910000000    -0.55916    
O112     O      0.575440000000     0.513520000000     0.128700000000    -0.60651    
O113     O      0.460510000000     0.521910000000     0.127580000000    -0.622869   
O114     O      0.460540000000     0.515020000000     0.910790000000    -0.564338   
O115     O      0.519480000000     0.627750000000     0.961570000000    -0.554608   
O116     O      0.515100000000     0.627550000000     0.077550000000    -0.563392   
O117     O      0.519840000000     0.576740000000     0.910650000000    -0.559401   
O118     O      0.513200000000     0.576690000000     0.128500000000    -0.606826   
O119     O      0.627320000000     0.520830000000     0.962070000000    -0.554262   
O120     O      0.409530000000     0.513260000000     0.961590000000    -0.600319   
O121     O      0.409780000000     0.521570000000     0.076430000000    -0.617751   
O122     O      0.626580000000     0.515620000000     0.078050000000    -0.561299   
O123     O      0.575900000000     0.627920000000     0.017780000000    -0.557215   
O124     O      0.459840000000     0.627330000000     0.023000000000    -0.562771   
O125     O      0.478430000000     0.558280000000     0.059020000000    -1.46438    
O126     O      0.557670000000     0.558450000000     0.980250000000    -1.36144    
O127     O      0.477090000000     0.564670000000     0.973480000000    -1.05396    
O128     O      0.563910000000     0.564930000000     0.060870000000    -1.04852    


