data_structure

_audit_creation_method RASPA-1.0
_audit_creation_date 2023-5-19
_audit_author_name 'Poobodin Mano'

_cell_length_a    22.0764
_cell_length_b    22.292
_cell_length_c    21.9328
_cell_angle_alpha 90
_cell_angle_beta  90
_cell_angle_gamma 90
_cell_volume      10793.7

_symmetry_cell_setting          triclinic
_symmetry_space_group_name_Hall 'P 1'
_symmetry_space_group_name_H-M  'P 1'
_symmetry_Int_Tables_number     1

_symmetry_equiv_pos_as_xyz 'x,y,z'

loop_
_atom_site_label
_atom_site_type_symbol
_atom_site_fract_x
_atom_site_fract_y
_atom_site_fract_z
_atom_site_charge
C1       C      0.053560000000     0.189150000000     0.211770000000     0.513783   
C2       C      0.098420000000     0.906650000000     0.209940000000     0.514062   
C3       C      0.934080000000     0.049060000000     0.231120000000     0.524215   
C4       C      0.217760000000     0.064110000000     0.187480000000     0.517065   
C5       C      0.052770000000     0.900140000000     0.921630000000     0.502645   
C6       C      0.031610000000     0.191520000000     0.920780000000     0.509264   
C7       C      0.926420000000     0.888170000000     0.078140000000     0.500644   
C8       C      0.216220000000     0.921150000000     0.057350000000     0.517649   
C9       C      0.182180000000     0.203620000000     0.042470000000     0.512255   
C10      C      0.895980000000     0.171550000000     0.095940000000     0.518694   
C11      C      0.890740000000     0.028260000000     0.942570000000     0.508871   
C12      C      0.174110000000     0.071350000000     0.898850000000     0.51842    
C13      C      0.010520000000     0.404990000000     0.406510000000     0.511372   
C14      C      0.051870000000     0.688090000000     0.399980000000     0.515219   
C15      C      0.883490000000     0.556490000000     0.428290000000     0.527184   
C16      C      0.168860000000     0.543180000000     0.383140000000     0.518753   
C17      C      0.073670000000     0.692030000000     0.691010000000     0.506077   
C18      C      0.062280000000     0.399600000000     0.693190000000     0.506836   
C19      C      0.917420000000     0.701490000000     0.563570000000     0.510388   
C20      C      0.205240000000     0.674320000000     0.515100000000     0.52073    
C21      C      0.180830000000     0.392030000000     0.539530000000     0.515557   
C22      C      0.892180000000     0.415930000000     0.559340000000     0.518853   
C23      C      0.928320000000     0.567690000000     0.714630000000     0.510422   
C24      C      0.212990000000     0.529300000000     0.672330000000     0.520311   
C25      C      0.688050000000     0.050550000000     0.409440000000     0.52439    
C26      C      0.696150000000     0.014280000000     0.697840000000     0.517394   
C27      C      0.702140000000     0.174720000000     0.550530000000     0.520056   
C28      C      0.684620000000     0.890700000000     0.556620000000     0.519196   
C29      C      0.407670000000     0.050460000000     0.707620000000     0.509142   
C30      C      0.400740000000     0.041250000000     0.414100000000     0.521777   
C31      C      0.562410000000     0.174480000000     0.712510000000     0.511472   
C32      C      0.544810000000     0.889780000000     0.696270000000     0.520666   
C33      C      0.535290000000     0.906600000000     0.403410000000     0.510325   
C34      C      0.557910000000     0.193390000000     0.420670000000     0.516649   
C35      C      0.411330000000     0.192910000000     0.567340000000     0.506269   
C36      C      0.393480000000     0.908040000000     0.540290000000     0.518427   
C37      C      0.414450000000     0.392370000000     0.040420000000     0.515108   
C38      C      0.706190000000     0.401750000000     0.057400000000     0.517922   
C39      C      0.545690000000     0.393410000000     0.902730000000     0.523511   
C40      C      0.567900000000     0.397390000000     0.192790000000     0.51577    
C41      C      0.696050000000     0.687950000000     0.046630000000     0.502091   
C42      C      0.404420000000     0.677540000000     0.052840000000     0.518562   
C43      C      0.700570000000     0.542620000000     0.900570000000     0.511228   
C44      C      0.699400000000     0.536970000000     0.191760000000     0.528825   
C45      C      0.411690000000     0.542510000000     0.191980000000     0.519238   
C46      C      0.411380000000     0.519710000000     0.900400000000     0.520794   
C47      C      0.561110000000     0.678480000000     0.895940000000     0.50911    
C48      C      0.536660000000     0.683500000000     0.190660000000     0.512231   
C49      C      0.549430000000     0.236200000000     0.315410000000     0.0370129  
C50      C      0.606300000000     0.256630000000     0.280490000000    -0.120928   
C51      C      0.590870000000     0.292850000000     0.222850000000     0.034996   
C52      C      0.543440000000     0.802930000000     0.359370000000     0.0331334  
C53      C      0.489110000000     0.768610000000     0.332160000000    -0.11857    
C54      C      0.508170000000     0.712200000000     0.296120000000     0.0331773  
C55      C      0.538380000000     0.782000000000     0.726090000000     0.0381902  
C56      C      0.597810000000     0.751020000000     0.745050000000    -0.119391   
C57      C      0.587320000000     0.698790000000     0.789140000000     0.035484   
C58      C      0.580250000000     0.277550000000     0.751300000000     0.0377033  
C59      C      0.519230000000     0.310600000000     0.755940000000    -0.117123   
C60      C      0.523740000000     0.366540000000     0.796050000000     0.035408   
C61      C      0.739090000000     0.277880000000     0.530110000000     0.0353181  
C62      C      0.791980000000     0.302920000000     0.492350000000    -0.121155   
C63      C      0.848040000000     0.317400000000     0.531380000000     0.0360336  
C64      C      0.713240000000     0.784680000000     0.577430000000     0.0346094  
C65      C      0.771060000000     0.750930000000     0.596650000000    -0.119185   
C66      C      0.814120000000     0.740290000000     0.542460000000     0.0370085  
C67      C      0.308680000000     0.233750000000     0.544230000000     0.0344237  
C68      C      0.263740000000     0.256370000000     0.592730000000    -0.119382   
C69      C      0.207530000000     0.286380000000     0.564350000000     0.0328406  
C70      C      0.243910000000     0.775260000000     0.487470000000     0.0357416  
C71      C      0.300000000000     0.800830000000     0.454900000000    -0.120881   
C72      C      0.353380000000     0.812360000000     0.498580000000     0.0357166  
C73      C      0.732490000000     0.557980000000     0.297030000000     0.0395181  
C74      C      0.775020000000     0.610720000000     0.310650000000    -0.12295    
C75      C      0.837380000000     0.589010000000     0.331760000000     0.0409941  
C76      C      0.306430000000     0.563560000000     0.226230000000     0.0359689  
C77      C      0.284180000000     0.604440000000     0.278030000000    -0.121789   
C78      C      0.267180000000     0.569310000000     0.336060000000     0.0366997  
C79      C      0.262970000000     0.540560000000     0.773400000000     0.0370132  
C80      C      0.270720000000     0.482770000000     0.810850000000    -0.119376   
C81      C      0.306570000000     0.493860000000     0.869720000000     0.0360057  
C82      C      0.731990000000     0.539340000000     0.792260000000     0.0334378  
C83      C      0.790780000000     0.535510000000     0.755220000000    -0.114957   
C84      C      0.828580000000     0.593460000000     0.759620000000     0.0374323  
C85      C      0.800250000000     0.725410000000     0.071070000000     0.0338286  
C86      C      0.845140000000     0.751950000000     0.024370000000    -0.123799   
C87      C      0.900860000000     0.781650000000     0.054460000000     0.0316806  
C88      C      0.852090000000     0.270570000000     0.123500000000     0.0370131  
C89      C      0.790370000000     0.294880000000     0.144760000000    -0.120605   
C90      C      0.745270000000     0.302750000000     0.091700000000     0.0353194  
C91      C      0.261400000000     0.822680000000     0.083570000000     0.0353072  
C92      C      0.319790000000     0.804760000000     0.117320000000    -0.12062    
C93      C      0.369430000000     0.781400000000     0.074260000000     0.0342731  
C94      C      0.208530000000     0.312040000000     0.052460000000     0.0311214  
C95      C      0.266390000000     0.346070000000     0.071360000000    -0.117248   
C96      C      0.309240000000     0.358300000000     0.017170000000     0.0309179  
C97      C      0.839800000000     0.045060000000     0.843240000000     0.0338891  
C98      C      0.776330000000     0.067360000000     0.824890000000    -0.117916   
C99      C      0.733920000000     0.016240000000     0.804880000000     0.0301224  
C100     C      0.305500000000     0.081090000000     0.743740000000     0.0346913  
C101     C      0.291020000000     0.130720000000     0.790260000000    -0.120976   
C102     C      0.270160000000     0.105860000000     0.852180000000     0.0376878  
C103     C      0.260800000000     0.087350000000     0.288980000000     0.0406016  
C104     C      0.255390000000     0.028690000000     0.325820000000    -0.116126   
C105     C      0.292870000000     0.030900000000     0.384650000000     0.0306445  
C106     C      0.836400000000     0.083480000000     0.271790000000     0.038511   
C107     C      0.816280000000     0.118690000000     0.328380000000    -0.122995   
C108     C      0.792190000000     0.077260000000     0.378580000000     0.0381852  
C109     C      0.072680000000     0.359910000000     0.800660000000     0.0319666  
C110     C      0.014500000000     0.338000000000     0.833300000000    -0.122742   
C111     C      0.026420000000     0.299050000000     0.890590000000     0.0306212  
C112     C      0.079120000000     0.796030000000     0.892290000000     0.0325082  
C113     C      0.107630000000     0.765800000000     0.836060000000    -0.119781   
C114     C      0.061260000000     0.731050000000     0.797240000000     0.033339   
C115     C      0.113030000000     0.800890000000     0.244610000000     0.0353925  
C116     C      0.048730000000     0.774430000000     0.251560000000    -0.115859   
C117     C      0.047310000000     0.717180000000     0.290850000000     0.0334946  
C118     C      0.000150000000     0.298730000000     0.371900000000     0.0253253  
C119     C      0.064640000000     0.274540000000     0.360290000000    -0.113014   
C120     C      0.065290000000     0.217990000000     0.320120000000     0.0313876  
Eu1      Eu     0.069860000000     0.046880000000     0.172200000000     3.53869    
Eu2      Eu     0.067020000000     0.939950000000     0.065700000000     2.99292    
Eu3      Eu     0.042010000000     0.152850000000     0.065260000000     3.50631    
Eu4      Eu     0.949200000000     0.034650000000     0.081010000000     3.06115    
Eu5      Eu     0.160220000000     0.057470000000     0.048430000000     3.50309    
Eu6      Eu     0.039260000000     0.045470000000     0.957330000000     3.03338    
Eu7      Eu     0.032330000000     0.547370000000     0.442150000000     3.50597    
Eu8      Eu     0.058940000000     0.653050000000     0.547090000000     3.08666    
Eu9      Eu     0.039080000000     0.440270000000     0.550860000000     3.45458    
Eu10     Eu     0.943040000000     0.555500000000     0.564970000000     3.09963    
Eu11     Eu     0.154780000000     0.537710000000     0.534280000000     3.54588    
Eu12     Eu     0.064550000000     0.546150000000     0.657300000000     3.00618    
Eu13     Eu     0.654730000000     0.035390000000     0.555750000000     3.52849    
Eu14     Eu     0.550280000000     0.034630000000     0.665780000000     3.04262    
Eu15     Eu     0.544780000000     0.047860000000     0.449940000000     3.52625    
Eu16     Eu     0.554520000000     0.147700000000     0.563880000000     3.04908    
Eu17     Eu     0.540640000000     0.934190000000     0.552280000000     3.48981    
Eu18     Eu     0.439980000000     0.047360000000     0.560100000000     3.06959    
Eu19     Eu     0.559600000000     0.432390000000     0.046970000000     3.49237    
Eu20     Eu     0.662860000000     0.542570000000     0.046280000000     3.05316    
Eu21     Eu     0.447820000000     0.536720000000     0.044840000000     3.52259    
Eu22     Eu     0.555620000000     0.537160000000     0.937730000000     3.10124    
Eu23     Eu     0.555420000000     0.541190000000     0.153820000000     3.55202    
Eu24     Eu     0.551550000000     0.646700000000     0.044060000000     3.01918    
H1       H      0.019840000000     0.986930000000     0.173570000000    -0.186306   
H2       H      0.143450000000     0.144130000000     0.140360000000     0.412636   
H3       H      0.980920000000     0.139090000000     0.017370000000    -0.179508   
H4       H      0.152160000000     0.000790000000     0.994140000000    -0.168867   
H5       H      0.984730000000     0.607370000000     0.456490000000    -0.168358   
H6       H      0.115970000000     0.452010000000     0.449620000000     0.406819   
H7       H      0.993210000000     0.452320000000     0.613350000000    -0.18503    
H8       H      0.160140000000     0.592930000000     0.589120000000    -0.197239   
H9       H      0.652720000000     0.087330000000     0.614450000000    -0.179241   
H10      H      0.629780000000     0.954290000000     0.462610000000     0.409187   
H11      H      0.492260000000     0.104710000000     0.461130000000    -0.176162   
H12      H      0.486420000000     0.942220000000     0.608460000000    -0.188673   
H13      H      0.614400000000     0.440010000000     0.990730000000    -0.172392   
H14      H      0.469740000000     0.450100000000     0.135510000000     0.408773   
H15      H      0.453390000000     0.590650000000     0.988180000000    -0.185068   
H16      H      0.608400000000     0.598280000000     0.146380000000    -0.1813     
H17      H      0.536710000000     0.190060000000     0.301030000000     0.0289243  
H18      H      0.510830000000     0.266320000000     0.304220000000     0.0185545  
H19      H      0.574910000000     0.369630000000     0.282600000000     0.100113   
H20      H      0.636630000000     0.283960000000     0.310020000000     0.0566605  
H21      H      0.632510000000     0.216130000000     0.267080000000     0.0508156  
H22      H      0.553040000000     0.271550000000     0.197270000000     0.021662   
H23      H      0.630770000000     0.292170000000     0.192050000000     0.026226   
H24      H      0.564340000000     0.283460000000     0.399300000000     0.100628   
H25      H      0.584910000000     0.792510000000     0.332600000000     0.018505   
H26      H      0.551490000000     0.787910000000     0.407020000000     0.026025   
H27      H      0.526140000000     0.771440000000     0.218990000000     0.100659   
H28      H      0.458990000000     0.754760000000     0.370290000000     0.0490459  
H29      H      0.461490000000     0.798100000000     0.302120000000     0.0558589  
H30      H      0.469290000000     0.680440000000     0.294880000000     0.027628   
H31      H      0.545690000000     0.688190000000     0.319590000000     0.0247382  
H32      H      0.530810000000     0.886060000000     0.311640000000     0.100577   
H33      H      0.499470000000     0.763510000000     0.752250000000     0.0241188  
H34      H      0.529320000000     0.773190000000     0.677040000000     0.0296384  
H35      H      0.570450000000     0.764730000000     0.861340000000     0.102721   
H36      H      0.620280000000     0.733170000000     0.703460000000     0.0484655  
H37      H      0.630230000000     0.783200000000     0.766060000000     0.0589568  
H38      H      0.629860000000     0.672200000000     0.792360000000     0.0262609  
H39      H      0.552230000000     0.667900000000     0.770650000000     0.0286351  
H40      H      0.542710000000     0.858760000000     0.785150000000     0.104375   
H41      H      0.612140000000     0.292930000000     0.787320000000     0.0230389  
H42      H      0.601660000000     0.287610000000     0.706540000000     0.0300006  
H43      H      0.532500000000     0.306020000000     0.874020000000     0.10375    
H44      H      0.504320000000     0.324070000000     0.709490000000     0.0526604  
H45      H      0.483330000000     0.280870000000     0.774860000000     0.0578095  
H46      H      0.480390000000     0.391840000000     0.793390000000     0.026082   
H47      H      0.559840000000     0.396860000000     0.778550000000     0.0283155  
H48      H      0.571580000000     0.196390000000     0.803830000000     0.102387   
H49      H      0.696370000000     0.284390000000     0.504000000000     0.0306287  
H50      H      0.734140000000     0.302890000000     0.573660000000     0.0242249  
H51      H      0.801110000000     0.395620000000     0.566730000000     0.101876   
H52      H      0.804480000000     0.269750000000     0.456590000000     0.0517362  
H53      H      0.776950000000     0.344040000000     0.467920000000     0.0539918  
H54      H      0.889000000000     0.312400000000     0.502280000000     0.0326468  
H55      H      0.852750000000     0.285040000000     0.569620000000     0.0235772  
H56      H      0.792490000000     0.196820000000     0.542430000000     0.102457   
H57      H      0.679870000000     0.783320000000     0.615400000000     0.0266123  
H58      H      0.691630000000     0.762440000000     0.537600000000     0.0197793  
H59      H      0.894720000000     0.791550000000     0.561420000000     0.101439   
H60      H      0.794080000000     0.777000000000     0.633190000000     0.0594993  
H61      H      0.758230000000     0.706890000000     0.616640000000     0.0517498  
H62      H      0.804810000000     0.773160000000     0.505500000000     0.0191405  
H63      H      0.805380000000     0.695020000000     0.522970000000     0.0313514  
H64      H      0.772560000000     0.860770000000     0.560870000000     0.103478   
H65      H      0.304690000000     0.261430000000     0.502270000000     0.0191025  
H66      H      0.296870000000     0.186950000000     0.531360000000     0.0308609  
H67      H      0.267350000000     0.357800000000     0.533760000000     0.10059    
H68      H      0.249040000000     0.217610000000     0.621000000000     0.0505951  
H69      H      0.285950000000     0.288940000000     0.624020000000     0.0575763  
H70      H      0.171100000000     0.288490000000     0.599330000000     0.0313733  
H71      H      0.189890000000     0.259010000000     0.525870000000     0.0183497  
H72      H      0.388010000000     0.282630000000     0.572440000000     0.0993935  
H73      H      0.203590000000     0.781550000000     0.457710000000     0.0279025  
H74      H      0.234570000000     0.799850000000     0.530540000000     0.0268784  
H75      H      0.302600000000     0.886930000000     0.536260000000     0.103468   
H76      H      0.314500000000     0.769100000000     0.418570000000     0.049541   
H77      H      0.287560000000     0.843380000000     0.431540000000     0.0525503  
H78      H      0.396200000000     0.811020000000     0.471850000000     0.030639   
H79      H      0.356430000000     0.776530000000     0.533660000000     0.0247549  
H80      H      0.294530000000     0.691890000000     0.494510000000     0.102553   
H81      H      0.685070000000     0.573360000000     0.303830000000     0.0289675  
H82      H      0.740380000000     0.520270000000     0.329180000000     0.0238463  
H83      H      0.791720000000     0.564490000000     0.416050000000     0.1027     
H84      H      0.780220000000     0.639210000000     0.269320000000     0.0543151  
H85      H      0.754730000000     0.639670000000     0.346580000000     0.0504126  
H86      H      0.869610000000     0.627380000000     0.330530000000     0.0237246  
H87      H      0.855960000000     0.554090000000     0.300810000000     0.0261034  
H88      H      0.787890000000     0.529670000000     0.220880000000     0.103651   
H89      H      0.301660000000     0.587930000000     0.182220000000     0.0297326  
H90      H      0.278060000000     0.522470000000     0.223340000000     0.0178753  
H91      H      0.183500000000     0.545010000000     0.290240000000     0.0991939  
H92      H      0.320260000000     0.637540000000     0.289150000000     0.0519863  
H93      H      0.244510000000     0.630920000000     0.262080000000     0.0514056  
H94      H      0.273460000000     0.599290000000     0.376150000000     0.0309657  
H95      H      0.297470000000     0.530120000000     0.343080000000     0.0200943  
H96      H      0.384830000000     0.542650000000     0.281810000000     0.100061   
H97      H      0.301340000000     0.571710000000     0.782080000000     0.0230582  
H98      H      0.220840000000     0.563930000000     0.787850000000     0.0303849  
H99      H      0.385490000000     0.505970000000     0.811230000000     0.102541   
H100     H      0.225230000000     0.464710000000     0.822520000000     0.0530252  
H101     H      0.294550000000     0.447770000000     0.783750000000     0.0568778  
H102     H      0.304700000000     0.452880000000     0.898500000000     0.0257666  
H103     H      0.285700000000     0.530790000000     0.896600000000     0.0258445  
H104     H      0.304900000000     0.518870000000     0.687570000000     0.102098   
H105     H      0.703670000000     0.499190000000     0.782580000000     0.0274886  
H106     H      0.705160000000     0.579240000000     0.778180000000     0.0245861  
H107     H      0.912870000000     0.578540000000     0.807220000000     0.101297   
H108     H      0.817200000000     0.496230000000     0.771810000000     0.0593687  
H109     H      0.779470000000     0.526790000000     0.706620000000     0.0543685  
H110     H      0.815870000000     0.620110000000     0.800510000000     0.0206167  
H111     H      0.819430000000     0.621880000000     0.718930000000     0.0287743  
H112     H      0.789740000000     0.543400000000     0.872890000000     0.10384    
H113     H      0.804910000000     0.749460000000     0.115220000000     0.0213319  
H114     H      0.811630000000     0.677560000000     0.079600000000     0.0315902  
H115     H      0.840830000000     0.851880000000     0.086830000000     0.102901   
H116     H      0.860820000000     0.715150000000     0.994000000000     0.0551371  
H117     H      0.822350000000     0.785560000000     0.994690000000     0.0621211  
H118     H      0.938140000000     0.783900000000     0.020410000000     0.0303327  
H119     H      0.917460000000     0.753880000000     0.093100000000     0.0222235  
H120     H      0.721630000000     0.777200000000     0.046780000000     0.100884   
H121     H      0.885970000000     0.276890000000     0.160490000000     0.0263401  
H122     H      0.869050000000     0.295710000000     0.083190000000     0.0252485  
H123     H      0.796580000000     0.378130000000     0.057940000000     0.103547   
H124     H      0.770820000000     0.263700000000     0.179140000000     0.049167   
H125     H      0.797120000000     0.338500000000     0.168460000000     0.0549879  
H126     H      0.698570000000     0.295990000000     0.109110000000     0.0310356  
H127     H      0.753140000000     0.268370000000     0.055880000000     0.0242457  
H128     H      0.805510000000     0.185460000000     0.112780000000     0.101955   
H129     H      0.222620000000     0.817760000000     0.115590000000     0.0300043  
H130     H      0.252430000000     0.792190000000     0.044510000000     0.0236827  
H131     H      0.314470000000     0.702110000000     0.058580000000     0.101641   
H132     H      0.337310000000     0.843960000000     0.143290000000     0.0528914  
H133     H      0.309110000000     0.769570000000     0.151650000000     0.0518588  
H134     H      0.414120000000     0.787410000000     0.096880000000     0.0313376  
H135     H      0.370410000000     0.808000000000     0.031410000000     0.0249577  
H136     H      0.307970000000     0.903220000000     0.053060000000     0.103679   
H137     H      0.187410000000     0.333690000000     0.012050000000     0.0224542  
H138     H      0.175020000000     0.314320000000     0.090270000000     0.0204713  
H139     H      0.387450000000     0.303450000000     0.036290000000     0.097721   
H140     H      0.253270000000     0.389650000000     0.092190000000     0.0466005  
H141     H      0.289900000000     0.319780000000     0.107420000000     0.0506873  
H142     H      0.301760000000     0.404770000000     0.000440000000     0.0322635  
H143     H      0.298500000000     0.327700000000     0.978630000000     0.0230935  
H144     H      0.267460000000     0.237880000000     0.028180000000     0.101236   
H145     H      0.872780000000     0.082210000000     0.836420000000     0.029887   
H146     H      0.854750000000     0.007420000000     0.813610000000     0.0250001  
H147     H      0.784590000000     0.996340000000     0.723190000000     0.106435   
H148     H      0.755610000000     0.091970000000     0.863780000000     0.0538079  
H149     H      0.780720000000     0.100540000000     0.787240000000     0.0557201  
H150     H      0.686600000000     0.028600000000     0.816760000000     0.0339726  
H151     H      0.745070000000     0.974390000000     0.830070000000     0.026549   
H152     H      0.799330000000     0.014940000000     0.928230000000     0.102838   
H153     H      0.300120000000     0.100050000000     0.697160000000     0.0310383  
H154     H      0.272870000000     0.043390000000     0.748030000000     0.0250153  
H155     H      0.186710000000     0.080170000000     0.806190000000     0.102782   
H156     H      0.331750000000     0.159330000000     0.797040000000     0.053832   
H157     H      0.255010000000     0.160390000000     0.771550000000     0.051027   
H158     H      0.272750000000     0.142310000000     0.886740000000     0.0299593  
H159     H      0.300610000000     0.069450000000     0.868230000000     0.0259154  
H160     H      0.382060000000     0.052180000000     0.798160000000     0.103971   
H161     H      0.301090000000     0.113800000000     0.303220000000     0.0172328  
H162     H      0.220220000000     0.115640000000     0.297960000000     0.0192733  
H163     H      0.372090000000     0.030360000000     0.325470000000     0.103983   
H164     H      0.207050000000     0.020750000000     0.337570000000     0.0547289  
H165     H      0.270770000000     0.989620000000     0.298260000000     0.0620224  
H166     H      0.284250000000     0.989640000000     0.411810000000     0.0276608  
H167     H      0.278820000000     0.069720000000     0.413230000000     0.02587    
H168     H      0.309150000000     0.078210000000     0.203840000000     0.0990391  
H169     H      0.834780000000     0.114140000000     0.231730000000     0.0293885  
H170     H      0.805080000000     0.045780000000     0.261540000000     0.0248507  
H171     H      0.714550000000     0.060200000000     0.319950000000     0.100507   
H172     H      0.854880000000     0.145530000000     0.346260000000     0.0513955  
H173     H      0.780400000000     0.151340000000     0.315380000000     0.0517004  
H174     H      0.794560000000     0.101610000000     0.422820000000     0.0315564  
H175     H      0.820890000000     0.036530000000     0.383090000000     0.0222043  
H176     H      0.917840000000     0.060800000000     0.322920000000     0.103061   
H177     H      0.111590000000     0.331440000000     0.814750000000     0.0221139  
H178     H      0.082850000000     0.406940000000     0.814080000000     0.0286978  
H179     H      0.028270000000     0.220550000000     0.831030000000     0.100606   
H180     H      0.988390000000     0.378340000000     0.847420000000     0.0540041  
H181     H      0.984480000000     0.312990000000     0.801440000000     0.0601641  
H182     H      0.989210000000     0.306860000000     0.923870000000     0.0285887  
H183     H      0.068770000000     0.313100000000     0.914060000000     0.0280164  
H184     H      0.062860000000     0.310120000000     0.717790000000     0.101092   
H185     H      0.114310000000     0.798420000000     0.928540000000     0.0321234  
H186     H      0.041590000000     0.768370000000     0.911100000000     0.0232489  
H187     H      0.078600000000     0.781180000000     0.715580000000     0.102598   
H188     H      0.131630000000     0.800390000000     0.808600000000     0.0596708  
H189     H      0.142840000000     0.733550000000     0.851570000000     0.0523519  
H190     H      0.015220000000     0.750010000000     0.804510000000     0.0226517  
H191     H      0.060030000000     0.683260000000     0.811720000000     0.0315572  
H192     H      0.046120000000     0.867820000000     0.833130000000     0.101799   
H193     H      0.130960000000     0.789860000000     0.198550000000     0.0271025  
H194     H      0.144220000000     0.780880000000     0.278870000000     0.0196572  
H195     H      0.062970000000     0.775150000000     0.369350000000     0.102385   
H196     H      0.017130000000     0.807880000000     0.271740000000     0.0586565  
H197     H      0.030860000000     0.763540000000     0.205470000000     0.052297   
H198     H      0.082780000000     0.685040000000     0.275630000000     0.0268311  
H199     H      0.003000000000     0.694320000000     0.284290000000     0.024462   
H200     H      0.120530000000     0.881530000000     0.298120000000     0.100522   
H201     H      0.985720000000     0.286960000000     0.419000000000     0.0316779  
H202     H      0.967400000000     0.277860000000     0.339710000000     0.0242724  
H203     H      0.043670000000     0.276260000000     0.243050000000     0.0985094  
H204     H      0.093830000000     0.309230000000     0.338620000000     0.0463201  
H205     H      0.085820000000     0.263590000000     0.404920000000     0.044882   
H206     H      0.032070000000     0.184480000000     0.337320000000     0.0276937  
H207     H      0.110690000000     0.196580000000     0.323360000000     0.0197905  
H208     H      0.990360000000     0.378830000000     0.318200000000     0.100172   
N1       N      0.575690000000     0.355530000000     0.237110000000    -0.244061   
N2       N      0.559750000000     0.240280000000     0.381190000000    -0.241766   
N3       N      0.525950000000     0.726630000000     0.233170000000    -0.239848   
N4       N      0.533570000000     0.867870000000     0.355530000000    -0.243474   
N5       N      0.570150000000     0.719010000000     0.850660000000    -0.238824   
N6       N      0.542240000000     0.846130000000     0.739210000000    -0.242166   
N7       N      0.535630000000     0.350770000000     0.859970000000    -0.242641   
N8       N      0.570760000000     0.213190000000     0.759310000000    -0.241324   
N9       N      0.843930000000     0.378410000000     0.556130000000    -0.24128    
N10      N      0.748390000000     0.214020000000     0.543150000000    -0.241934   
N11      N      0.877660000000     0.747800000000     0.560740000000    -0.239979   
N12      N      0.727170000000     0.847250000000     0.562340000000    -0.244741   
N13      N      0.222060000000     0.346970000000     0.542490000000    -0.244125   
N14      N      0.371330000000     0.239180000000     0.565960000000    -0.239296   
N15      N      0.346420000000     0.870600000000     0.528830000000    -0.241015   
N16      N      0.251770000000     0.711300000000     0.500550000000    -0.241763   
N17      N      0.833710000000     0.565470000000     0.393860000000    -0.244725   
N18      N      0.743180000000     0.537020000000     0.234760000000    -0.244626   
N19      N      0.204280000000     0.548590000000     0.332990000000    -0.245139   
N20      N      0.369660000000     0.546530000000     0.236790000000    -0.246007   
N21      N      0.370100000000     0.507990000000     0.856320000000    -0.242102   
N22      N      0.262900000000     0.526650000000     0.708180000000    -0.242869   
N23      N      0.893060000000     0.578830000000     0.763910000000    -0.240975   
N24      N      0.744770000000     0.542290000000     0.857810000000    -0.240113   
N25      N      0.886050000000     0.842130000000     0.076550000000    -0.237336   
N26      N      0.737360000000     0.733090000000     0.050550000000    -0.237836   
N27      N      0.752450000000     0.362430000000     0.064870000000    -0.241117   
N28      N      0.847650000000     0.206680000000     0.108960000000    -0.242349   
N29      N      0.359050000000     0.718020000000     0.059620000000    -0.241438   
N30      N      0.265230000000     0.884660000000     0.061370000000    -0.241184   
N31      N      0.372690000000     0.347990000000     0.034450000000    -0.243703   
N32      N      0.222570000000     0.249290000000     0.038250000000    -0.244417   
N33      N      0.740980000000     0.005630000000     0.739290000000    -0.241976   
N34      N      0.840450000000     0.025720000000     0.907150000000    -0.239226   
N35      N      0.207860000000     0.083470000000     0.848760000000    -0.241496   
N36      N      0.367070000000     0.058260000000     0.753350000000    -0.239202   
N37      N      0.357670000000     0.034760000000     0.370720000000    -0.242844   
N38      N      0.266290000000     0.074430000000     0.223770000000    -0.248002   
N39      N      0.729690000000     0.059450000000     0.365160000000    -0.246666   
N40      N      0.897970000000     0.060170000000     0.279600000000    -0.243309   
N41      N      0.029030000000     0.234450000000     0.876570000000    -0.238145   
N42      N      0.065960000000     0.354010000000     0.734420000000    -0.238847   
N43      N      0.075400000000     0.737340000000     0.732350000000    -0.238581   
N44      N      0.056520000000     0.856690000000     0.878260000000    -0.237137   
N45      N      0.055280000000     0.730760000000     0.355880000000    -0.240496   
N46      N      0.111920000000     0.865940000000     0.253980000000    -0.24149    
N47      N      0.052540000000     0.231920000000     0.255880000000    -0.243866   
N48      N      0.998710000000     0.363710000000     0.362560000000    -0.241329   
O1       O      0.044070000000     0.207150000000     0.153850000000    -0.631763   
O2       O      0.087350000000     0.886860000000     0.152880000000    -0.567103   
O3       O      0.994020000000     0.048820000000     0.241380000000    -0.628483   
O4       O      0.163290000000     0.057860000000     0.214320000000    -0.641053   
O5       O      0.227590000000     0.063620000000     0.126910000000    -0.6333     
O6       O      0.907780000000     0.042460000000     0.176050000000    -0.572883   
O7       O      0.096090000000     0.964510000000     0.227270000000    -0.624969   
O8       O      0.064560000000     0.132180000000     0.228930000000    -0.631931   
O9       O      0.129090000000     0.995660000000     0.115900000000    -1.4705     
O10      O      0.999310000000     0.099410000000     0.133040000000    -1.48605    
O11      O      0.003430000000     0.971760000000     0.137410000000    -1.05754    
O12      O      0.117680000000     0.115180000000     0.118020000000    -1.64425    
O13      O      0.064060000000     0.883910000000     0.979640000000    -0.569342   
O14      O      0.034610000000     0.209640000000     0.979350000000    -0.620359   
O15      O      0.903400000000     0.943390000000     0.087070000000    -0.573934   
O16      O      0.227020000000     0.980010000000     0.049220000000    -0.621832   
O17      O      0.205330000000     0.148070000000     0.037810000000    -0.639645   
O18      O      0.884760000000     0.112520000000     0.092210000000    -0.585844   
O19      O      0.944860000000     0.036840000000     0.915310000000    -0.571902   
O20      O      0.115350000000     0.058860000000     0.889260000000    -0.585425   
O21      O      0.882090000000     0.024240000000     0.003140000000    -0.576866   
O22      O      0.201000000000     0.073550000000     0.954070000000    -0.609307   
O23      O      0.985750000000     0.876030000000     0.069690000000    -0.557975   
O24      O      0.950930000000     0.197270000000     0.088230000000    -0.606095   
O25      O      0.123190000000     0.216410000000     0.052780000000    -0.624522   
O26      O      0.160760000000     0.896470000000     0.063280000000    -0.56694    
O27      O      0.040730000000     0.956830000000     0.903140000000    -0.556259   
O28      O      0.031180000000     0.133520000000     0.902650000000    -0.559185   
O29      O      0.097930000000     0.111110000000     0.998180000000    -1.47374    
O30      O      0.995120000000     0.980960000000     0.014480000000    -1.36313    
O31      O      0.970640000000     0.099650000000     0.006900000000    -1.05829    
O32      O      0.113460000000     0.984650000000     0.987750000000    -1.05648    
O33      O      0.020630000000     0.385930000000     0.464040000000    -0.622664   
O34      O      0.057740000000     0.706600000000     0.458170000000    -0.5769     
O35      O      0.937870000000     0.553480000000     0.400360000000    -0.615124   
O36      O      0.108790000000     0.542360000000     0.373590000000    -0.643529   
O37      O      0.195810000000     0.541130000000     0.438370000000    -0.624556   
O38      O      0.874680000000     0.555130000000     0.488700000000    -0.594154   
O39      O      0.042560000000     0.630750000000     0.382840000000    -0.60986    
O40      O      0.011880000000     0.462620000000     0.388470000000    -0.641741   
O41      O      0.104100000000     0.599080000000     0.480270000000    -1.49224    
O42      O      0.976770000000     0.492560000000     0.498770000000    -1.47308    
O43      O      0.978740000000     0.620210000000     0.496610000000    -1.08038    
O44      O      0.095920000000     0.479640000000     0.478660000000    -1.63729    
O45      O      0.072760000000     0.708760000000     0.632150000000    -0.587893   
O46      O      0.052370000000     0.382970000000     0.635070000000    -0.61761    
O47      O      0.894750000000     0.645530000000     0.567080000000    -0.572541   
O48      O      0.217950000000     0.615430000000     0.516730000000    -0.630102   
O49      O      0.202840000000     0.447630000000     0.530830000000    -0.649443   
O50      O      0.880340000000     0.474310000000     0.569400000000    -0.581567   
O51      O      0.987620000000     0.558300000000     0.725010000000    -0.572657   
O52      O      0.158730000000     0.537640000000     0.699220000000    -0.581364   
O53      O      0.901840000000     0.567480000000     0.659300000000    -0.581036   
O54      O      0.222040000000     0.525430000000     0.611750000000    -0.621708   
O55      O      0.976830000000     0.714890000000     0.558620000000    -0.567402   
O56      O      0.947930000000     0.392780000000     0.550860000000    -0.611067   
O57      O      0.121750000000     0.378540000000     0.547010000000    -0.623202   
O58      O      0.150140000000     0.698410000000     0.526090000000    -0.569265   
O59      O      0.071970000000     0.634620000000     0.710990000000    -0.550767   
O60      O      0.067650000000     0.457220000000     0.712230000000    -0.555231   
O61      O      0.110890000000     0.482400000000     0.600290000000    -1.46933    
O62      O      0.004910000000     0.609890000000     0.615570000000    -1.38033    
O63      O      0.985600000000     0.490720000000     0.628580000000    -1.05072    
O64      O      0.125880000000     0.609010000000     0.607950000000    -1.04682    
O65      O      0.629720000000     0.050450000000     0.392080000000    -0.651378   
O66      O      0.638930000000     0.021300000000     0.718120000000    -0.569331   
O67      O      0.716770000000     0.116190000000     0.551270000000    -0.624137   
O68      O      0.705470000000     0.947210000000     0.553220000000    -0.644628   
O69      O      0.625550000000     0.874940000000     0.556410000000    -0.624548   
O70      O      0.645350000000     0.196520000000     0.555520000000    -0.569368   
O71      O      0.712730000000     0.016260000000     0.638900000000    -0.620612   
O72      O      0.707720000000     0.044470000000     0.467230000000    -0.636302   
O73      O      0.604720000000     0.974900000000     0.611990000000    -1.47604    
O74      O      0.609280000000     0.099230000000     0.499640000000    -1.48584    
O75      O      0.615480000000     0.101250000000     0.629010000000    -1.06753    
O76      O      0.604990000000     0.979390000000     0.490270000000    -1.6391     
O77      O      0.465590000000     0.041310000000     0.724190000000    -0.573363   
O78      O      0.458460000000     0.042390000000     0.394700000000    -0.628303   
O79      O      0.561620000000     0.196480000000     0.655190000000    -0.571189   
O80      O      0.542770000000     0.874110000000     0.636790000000    -0.612427   
O81      O      0.537040000000     0.884360000000     0.460690000000    -0.626675   
O82      O      0.559410000000     0.207450000000     0.480240000000    -0.581688   
O83      O      0.389650000000     0.136640000000     0.561990000000    -0.572406   
O84      O      0.379270000000     0.965300000000     0.553240000000    -0.580939   
O85      O      0.470550000000     0.207210000000     0.571390000000    -0.571521   
O86      O      0.450430000000     0.886150000000     0.536630000000    -0.609852   
O87      O      0.557860000000     0.116120000000     0.727150000000    -0.575354   
O88      O      0.553260000000     0.137040000000     0.398380000000    -0.608249   
O89      O      0.536590000000     0.965360000000     0.389270000000    -0.62917    
O90      O      0.547660000000     0.946380000000     0.717050000000    -0.582155   
O91      O      0.387730000000     0.053420000000     0.649590000000    -0.574862   
O92      O      0.383230000000     0.044820000000     0.472890000000    -0.573456   
O93      O      0.484500000000     0.988950000000     0.496340000000    -1.48208    
O94      O      0.493400000000     0.099800000000     0.622000000000    -1.37197    
O95      O      0.481970000000     0.116260000000     0.500820000000    -1.06908    
O96      O      0.476530000000     0.979740000000     0.624690000000    -1.04708    
O97      O      0.394630000000     0.449470000000     0.040960000000    -0.634985   
O98      O      0.721780000000     0.459460000000     0.049800000000    -0.580435   
O99      O      0.550060000000     0.375410000000     0.961220000000    -0.618172   
O100     O      0.566690000000     0.378430000000     0.134540000000    -0.636876   
O101     O      0.563010000000     0.455140000000     0.210500000000    -0.631425   
O102     O      0.549030000000     0.450680000000     0.883770000000    -0.584034   
O103     O      0.648690000000     0.381000000000     0.058650000000    -0.606436   
O104     O      0.473070000000     0.375640000000     0.044500000000    -0.62725    
O105     O      0.615820000000     0.482880000000     0.107010000000    -1.4845     
O106     O      0.498190000000     0.477620000000     0.988070000000    -1.4917     
O107     O      0.626140000000     0.478340000000     0.977850000000    -1.0694     
O108     O      0.494740000000     0.476290000000     0.109100000000    -1.64195    
O109     O      0.715980000000     0.630750000000     0.048450000000    -0.56513    
O110     O      0.388220000000     0.619400000000     0.050690000000    -0.628107   
O111     O      0.642580000000     0.538690000000     0.881840000000    -0.573335   
O112     O      0.641290000000     0.539180000000     0.210250000000    -0.63236    
O113     O      0.469700000000     0.540250000000     0.210130000000    -0.652835   
O114     O      0.469020000000     0.527650000000     0.882170000000    -0.58123    
O115     O      0.555900000000     0.699010000000     0.953710000000    -0.560271   
O116     O      0.542960000000     0.701520000000     0.132230000000    -0.565679   
O117     O      0.560050000000     0.620390000000     0.879750000000    -0.589833   
O118     O      0.539270000000     0.625970000000     0.209490000000    -0.61405    
O119     O      0.718470000000     0.545360000000     0.959120000000    -0.575739   
O120     O      0.392410000000     0.521510000000     0.958760000000    -0.613966   
O121     O      0.392950000000     0.541660000000     0.133400000000    -0.630298   
O122     O      0.717770000000     0.536500000000     0.133430000000    -0.583804   
O123     O      0.637280000000     0.704170000000     0.043380000000    -0.567505   
O124     O      0.461890000000     0.697910000000     0.049490000000    -0.573667   
O125     O      0.493870000000     0.596620000000     0.104440000000    -1.48568    
O126     O      0.612730000000     0.599060000000     0.985670000000    -1.37581    
O127     O      0.491150000000     0.604570000000     0.975000000000    -1.05553    
O128     O      0.621070000000     0.610410000000     0.107570000000    -1.05946    


