data_structure

_audit_creation_method RASPA-1.0
_audit_creation_date 2023-5-19
_audit_author_name 'Poobodin Mano'

_cell_length_a    32.9548
_cell_length_b    32.8534
_cell_length_c    32.8684
_cell_angle_alpha 90
_cell_angle_beta  90
_cell_angle_gamma 90
_cell_volume      35585.9

_symmetry_cell_setting          triclinic
_symmetry_space_group_name_Hall 'P 1'
_symmetry_space_group_name_H-M  'P 1'
_symmetry_Int_Tables_number     1

_symmetry_equiv_pos_as_xyz 'x,y,z'

loop_
_atom_site_label
_atom_site_type_symbol
_atom_site_fract_x
_atom_site_fract_y
_atom_site_fract_z
_atom_site_charge
C1       C      0.996040000000     0.092150000000     0.098870000000     0.506211   
C2       C      0.004230000000     0.898390000000     0.094130000000     0.510897   
C3       C      0.900690000000     0.000940000000     0.099330000000     0.511105   
C4       C      0.094700000000     0.991670000000     0.093060000000     0.504219   
C5       C      0.987990000000     0.903250000000     0.897940000000     0.499145   
C6       C      0.001520000000     0.098800000000     0.903880000000     0.517547   
C7       C      0.896100000000     0.901750000000     0.998230000000     0.498985   
C8       C      0.091730000000     0.898550000000     0.997110000000     0.50841    
C9       C      0.093080000000     0.094970000000     0.998080000000     0.501758   
C10      C      0.899490000000     0.097450000000     0.008240000000     0.51097    
C11      C      0.895360000000     0.999050000000     0.903070000000     0.495361   
C12      C      0.090940000000     0.005640000000     0.898450000000     0.511333   
C13      C      0.990600000000     0.399390000000     0.401690000000     0.50868    
C14      C      0.005240000000     0.592890000000     0.398140000000     0.510512   
C15      C      0.900120000000     0.492920000000     0.397430000000     0.513446   
C16      C      0.093710000000     0.494820000000     0.401490000000     0.506368   
C17      C      0.994070000000     0.596420000000     0.594090000000     0.497701   
C18      C      0.996340000000     0.400660000000     0.596280000000     0.511248   
C19      C      0.901380000000     0.598890000000     0.494730000000     0.499761   
C20      C      0.096180000000     0.592110000000     0.492550000000     0.50978    
C21      C      0.089310000000     0.396840000000     0.504310000000     0.509015   
C22      C      0.895680000000     0.401980000000     0.492190000000     0.510685   
C23      C      0.896170000000     0.503500000000     0.593480000000     0.498592   
C24      C      0.091320000000     0.490680000000     0.597550000000     0.509853   
C25      C      0.591510000000     0.996580000000     0.399800000000     0.505675   
C26      C      0.396770000000     0.000070000000     0.400550000000     0.513745   
C27      C      0.504010000000     0.899250000000     0.400920000000     0.512463   
C28      C      0.487900000000     0.093490000000     0.399440000000     0.508578   
C29      C      0.398440000000     0.994410000000     0.596390000000     0.497757   
C30      C      0.593690000000     0.006790000000     0.594640000000     0.507845   
C31      C      0.401130000000     0.896670000000     0.502340000000     0.500537   
C32      C      0.395260000000     0.093050000000     0.492640000000     0.510169   
C33      C      0.588870000000     0.098720000000     0.497790000000     0.507932   
C34      C      0.595690000000     0.903070000000     0.493370000000     0.510028   
C35      C      0.496170000000     0.900520000000     0.595880000000     0.500755   
C36      C      0.499830000000     0.097090000000     0.593880000000     0.511903   
C37      C      0.398570000000     0.399750000000     0.001290000000     0.504677   
C38      C      0.398070000000     0.595240000000     0.993260000000     0.508633   
C39      C      0.398050000000     0.494030000000     0.096080000000     0.509581   
C40      C      0.398420000000     0.499810000000     0.900560000000     0.506127   
C41      C      0.593470000000     0.594500000000     0.998670000000     0.498858   
C42      C      0.592060000000     0.398650000000     0.993960000000     0.510212   
C43      C      0.498840000000     0.595930000000     0.094620000000     0.501982   
C44      C      0.488520000000     0.594620000000     0.899680000000     0.511364   
C45      C      0.498570000000     0.398980000000     0.901630000000     0.508494   
C46      C      0.487720000000     0.400450000000     0.096510000000     0.511845   
C47      C      0.592860000000     0.499490000000     0.095580000000     0.502255   
C48      C      0.592830000000     0.490490000000     0.899670000000     0.509652   
C49      C      0.475670000000     0.348170000000     0.196290000000    -0.109413   
C50      C      0.487220000000     0.111520000000     0.329190000000     0.0865516  
C51      C      0.482140000000     0.163040000000     0.379460000000     0.0865216  
C52      C      0.485780000000     0.140690000000     0.298360000000    -0.104815   
C53      C      0.508330000000     0.211700000000     0.242990000000    -0.0356489  
C54      C      0.508030000000     0.242000000000     0.213130000000    -0.0344566  
C55      C      0.481170000000     0.213390000000     0.275900000000    -0.00947585 
C56      C      0.480280000000     0.192960000000     0.349350000000    -0.104723   
C57      C      0.480400000000     0.274530000000     0.215430000000    -0.0107351  
C58      C      0.487240000000     0.299260000000     0.143500000000    -0.105377   
C59      C      0.452710000000     0.275700000000     0.248000000000    -0.034626   
C60      C      0.488510000000     0.330870000000     0.115210000000     0.0879945  
C61      C      0.476460000000     0.379620000000     0.167380000000     0.106033   
C62      C      0.453210000000     0.245580000000     0.277980000000    -0.0355906  
C63      C      0.482310000000     0.181940000000     0.308250000000     0.0554264  
C64      C      0.481110000000     0.307690000000     0.184610000000     0.0589336  
C65      C      0.514530000000     0.799280000000     0.348950000000    -0.110108   
C66      C      0.498660000000     0.666120000000     0.112980000000     0.0879212  
C67      C      0.503180000000     0.615600000000     0.164260000000     0.0878895  
C68      C      0.499440000000     0.696810000000     0.142330000000    -0.103408   
C69      C      0.523820000000     0.755640000000     0.209050000000    -0.0354625  
C70      C      0.524570000000     0.785660000000     0.239170000000    -0.03472    
C71      C      0.502730000000     0.718940000000     0.215390000000    -0.009209   
C72      C      0.504310000000     0.645520000000     0.194350000000    -0.103512   
C73      C      0.504530000000     0.779460000000     0.276360000000    -0.0111827  
C74      C      0.499920000000     0.851600000000     0.300270000000    -0.106738   
C75      C      0.483240000000     0.742970000000     0.282630000000    -0.0348288  
C76      C      0.500450000000     0.880190000000     0.331580000000     0.0882302  
C77      C      0.515680000000     0.828530000000     0.380030000000     0.106459   
C78      C      0.482220000000     0.713120000000     0.252450000000    -0.0353268  
C79      C      0.502210000000     0.686740000000     0.183630000000     0.0555976  
C80      C      0.506230000000     0.810590000000     0.308910000000     0.0595166  
C81      C      0.476850000000     0.694310000000     0.847590000000    -0.109897   
C82      C      0.499530000000     0.830480000000     0.614220000000     0.0882806  
C83      C      0.490530000000     0.880480000000     0.665450000000     0.086426   
C84      C      0.498300000000     0.799560000000     0.643250000000    -0.104057   
C85      C      0.518320000000     0.744180000000     0.714950000000    -0.0358633  
C86      C      0.516410000000     0.713620000000     0.744480000000    -0.0346297  
C87      C      0.490450000000     0.776570000000     0.715340000000    -0.00942254 
C88      C      0.488780000000     0.850210000000     0.695280000000    -0.103488   
C89      C      0.486430000000     0.714690000000     0.774900000000    -0.0110795  
C90      C      0.492930000000     0.642370000000     0.799000000000    -0.105795   
C91      C      0.458100000000     0.746750000000     0.774720000000    -0.0347244  
C92      C      0.492630000000     0.613670000000     0.830320000000     0.0874773  
C93      C      0.476020000000     0.665020000000     0.878600000000     0.106511   
C94      C      0.460230000000     0.777440000000     0.745420000000    -0.035887   
C95      C      0.492640000000     0.809210000000     0.684270000000     0.0554739  
C96      C      0.485430000000     0.683300000000     0.807500000000     0.0588012  
C97      C      0.498750000000     0.298840000000     0.848380000000    -0.110894   
C98      C      0.505590000000     0.167250000000     0.611580000000     0.089834   
C99      C      0.502530000000     0.117270000000     0.663490000000     0.0882142  
C100     C      0.508020000000     0.198140000000     0.640660000000    -0.104199   
C101     C      0.487300000000     0.257550000000     0.708200000000    -0.0354878  
C102     C      0.487170000000     0.287320000000     0.738580000000    -0.0349836  
C103     C      0.508790000000     0.220940000000     0.713630000000    -0.00935147 
C104     C      0.504740000000     0.147400000000     0.693340000000    -0.103593   
C105     C      0.508310000000     0.281030000000     0.775150000000    -0.0111795  
C106     C      0.509820000000     0.352840000000     0.800680000000    -0.106281   
C107     C      0.530420000000     0.244840000000     0.780310000000    -0.0348897  
C108     C      0.506930000000     0.380820000000     0.832440000000     0.0848095  
C109     C      0.495270000000     0.327400000000     0.879970000000     0.105306   
C110     C      0.530760000000     0.215190000000     0.749860000000    -0.0353976  
C111     C      0.507410000000     0.188460000000     0.682150000000     0.0558641  
C112     C      0.506010000000     0.311370000000     0.808510000000     0.0585578  
C113     C      0.639090000000     0.200120000000     0.490350000000    -0.110485   
C114     C      0.875770000000     0.332270000000     0.492170000000     0.0899288  
C115     C      0.825580000000     0.383830000000     0.489040000000     0.0873254  
C116     C      0.845900000000     0.302180000000     0.492630000000    -0.104642   
C117     C      0.777870000000     0.243760000000     0.472610000000    -0.0354609  
C118     C      0.747910000000     0.213700000000     0.474470000000    -0.0350969  
C119     C      0.772660000000     0.281180000000     0.492820000000    -0.00937042 
C120     C      0.794900000000     0.354440000000     0.489200000000    -0.103226   
C121     C      0.711890000000     0.220470000000     0.496270000000    -0.0110218  
C122     C      0.688470000000     0.148230000000     0.503400000000    -0.105855   
C123     C      0.706610000000     0.257780000000     0.516480000000    -0.034949   
C124     C      0.657510000000     0.119270000000     0.503420000000     0.0840603  
C125     C      0.608310000000     0.170550000000     0.489770000000     0.10462    
C126     C      0.736670000000     0.287730000000     0.514890000000    -0.0353459  
C127     C      0.804830000000     0.312990000000     0.491360000000     0.0556036  
C128     C      0.679410000000     0.189160000000     0.497030000000     0.0580913  
C129     C      0.851480000000     0.699960000000     0.484260000000    -0.109797   
C130     C      0.615870000000     0.833550000000     0.496860000000     0.0885655  
C131     C      0.665540000000     0.884770000000     0.487080000000     0.0882115  
C132     C      0.645730000000     0.803490000000     0.496760000000    -0.103848   
C133     C      0.711900000000     0.744060000000     0.474020000000    -0.0354322  
C134     C      0.741810000000     0.713910000000     0.475030000000    -0.0348121  
C135     C      0.718710000000     0.782300000000     0.492090000000    -0.00927539 
C136     C      0.696230000000     0.855370000000     0.486630000000    -0.103776   
C137     C      0.779340000000     0.721390000000     0.493840000000    -0.0107995  
C138     C      0.802500000000     0.649270000000     0.502670000000    -0.104693   
C139     C      0.786250000000     0.759580000000     0.511820000000    -0.0349738  
C140     C      0.833160000000     0.620000000000     0.502260000000     0.0851392  
C141     C      0.881880000000     0.670030000000     0.483280000000     0.106552   
C142     C      0.756260000000     0.789650000000     0.511060000000    -0.0354505  
C143     C      0.686550000000     0.814120000000     0.491670000000     0.055516   
C144     C      0.811540000000     0.689780000000     0.493950000000     0.0584246  
C145     C      0.139420000000     0.295420000000     0.510590000000    -0.109381   
C146     C      0.374840000000     0.162370000000     0.486320000000     0.0895105  
C147     C      0.325180000000     0.111070000000     0.495890000000     0.0875131  
C148     C      0.344890000000     0.192420000000     0.486570000000    -0.104601   
C149     C      0.272130000000     0.246440000000     0.467190000000    -0.0357971  
C150     C      0.242200000000     0.276510000000     0.469680000000    -0.0349427  
C151     C      0.272190000000     0.213450000000     0.494430000000    -0.00936027 
C152     C      0.294480000000     0.140410000000     0.496570000000    -0.103349   
C153     C      0.211750000000     0.274380000000     0.499600000000    -0.0107799  
C154     C      0.188590000000     0.347120000000     0.496140000000    -0.105481   
C155     C      0.212060000000     0.241480000000     0.527000000000    -0.0346543  
C156     C      0.157920000000     0.376320000000     0.498110000000     0.0834215  
C157     C      0.108960000000     0.325240000000     0.512990000000     0.103162   
C158     C      0.241820000000     0.211320000000     0.524350000000    -0.0355502  
C159     C      0.304190000000     0.181680000000     0.492190000000     0.0556756  
C160     C      0.179530000000     0.306070000000     0.502000000000     0.0574551  
C161     C      0.351520000000     0.795100000000     0.508850000000    -0.108536   
C162     C      0.116340000000     0.661590000000     0.487460000000     0.0883388  
C163     C      0.166360000000     0.610050000000     0.493230000000     0.0887344  
C164     C      0.146270000000     0.691640000000     0.487280000000    -0.103962   
C165     C      0.218640000000     0.745660000000     0.465840000000    -0.0355252  
C166     C      0.248500000000     0.775810000000     0.468130000000    -0.0345781  
C167     C      0.219110000000     0.712480000000     0.492800000000    -0.00943188 
C168     C      0.197060000000     0.639400000000     0.493600000000    -0.104693   
C169     C      0.279320000000     0.773620000000     0.497680000000    -0.0104088  
C170     C      0.302140000000     0.846480000000     0.493880000000    -0.103923   
C171     C      0.279490000000     0.740480000000     0.524820000000    -0.034712   
C172     C      0.332650000000     0.875840000000     0.495800000000     0.0854493  
C173     C      0.381760000000     0.825100000000     0.511400000000     0.105609   
C174     C      0.249870000000     0.710180000000     0.522270000000    -0.0354987  
C175     C      0.187130000000     0.680750000000     0.490880000000     0.0560614  
C176     C      0.311380000000     0.805490000000     0.499990000000     0.0579572  
C177     C      0.848170000000     0.487120000000     0.296780000000    -0.11002    
C178     C      0.611580000000     0.501140000000     0.165620000000     0.0882068  
C179     C      0.662580000000     0.497750000000     0.114840000000     0.087921   
C180     C      0.640970000000     0.500130000000     0.196170000000    -0.10367    
C181     C      0.711870000000     0.520660000000     0.252180000000    -0.0355797  
C182     C      0.742110000000     0.518940000000     0.281950000000    -0.0344874  
C183     C      0.713680000000     0.495180000000     0.217880000000    -0.00917764 
C184     C      0.692720000000     0.496440000000     0.144640000000    -0.10351    
C185     C      0.774710000000     0.491610000000     0.278100000000    -0.0108847  
C186     C      0.799290000000     0.494030000000     0.350240000000    -0.105232   
C187     C      0.776090000000     0.465670000000     0.244090000000    -0.0345955  
C188     C      0.830800000000     0.494000000000     0.378520000000     0.0860108  
C189     C      0.879610000000     0.486880000000     0.325610000000     0.106378   
C190     C      0.745980000000     0.467520000000     0.214280000000    -0.0354934  
C191     C      0.682060000000     0.497410000000     0.185860000000     0.0558957  
C192     C      0.807760000000     0.490830000000     0.308850000000     0.0590049  
C193     C      0.146460000000     0.484580000000     0.302110000000    -0.110375   
C194     C      0.379970000000     0.498230000000     0.166160000000     0.0883412  
C195     C      0.328750000000     0.488460000000     0.116530000000     0.0883097  
C196     C      0.350950000000     0.498780000000     0.197080000000    -0.10364    
C197     C      0.285830000000     0.477620000000     0.258620000000    -0.0355802  
C198     C      0.256190000000     0.478520000000     0.289080000000    -0.0351493  
C199     C      0.278410000000     0.495280000000     0.220290000000    -0.00929499 
C200     C      0.298920000000     0.488640000000     0.146780000000    -0.103581   
C201     C      0.218360000000     0.496810000000     0.281800000000    -0.0109255  
C202     C      0.193870000000     0.504290000000     0.353810000000    -0.105398   
C203     C      0.211080000000     0.514860000000     0.243730000000    -0.0349362  
C204     C      0.162560000000     0.503030000000     0.382440000000     0.084107   
C205     C      0.115530000000     0.482650000000     0.331360000000     0.104909   
C206     C      0.240760000000     0.514210000000     0.213390000000    -0.0353713  
C207     C      0.309780000000     0.494100000000     0.187680000000     0.0553185  
C208     C      0.185830000000     0.495620000000     0.313050000000     0.0579269  
C209     C      0.142880000000     0.486730000000     0.698510000000    -0.108931   
C210     C      0.379670000000     0.500520000000     0.830430000000     0.0857437  
C211     C      0.328630000000     0.498770000000     0.881190000000     0.0850157  
C212     C      0.350260000000     0.499340000000     0.799850000000    -0.104428   
C213     C      0.279880000000     0.519070000000     0.742810000000    -0.0356244  
C214     C      0.249690000000     0.517010000000     0.712940000000    -0.0346301  
C215     C      0.277410000000     0.494870000000     0.778010000000    -0.00946948 
C216     C      0.298460000000     0.497340000000     0.851360000000    -0.104436   
C217     C      0.216400000000     0.490620000000     0.717550000000    -0.0106834  
C218     C      0.192100000000     0.491050000000     0.645110000000    -0.105382   
C219     C      0.214330000000     0.465970000000     0.752500000000    -0.0348016  
C220     C      0.160680000000     0.490550000000     0.616650000000     0.0872312  
C221     C      0.111570000000     0.485930000000     0.669500000000     0.105609   
C222     C      0.244390000000     0.468150000000     0.782380000000    -0.0357358  
C223     C      0.309090000000     0.497360000000     0.810110000000     0.0546904  
C224     C      0.183440000000     0.489440000000     0.686590000000     0.0585879  
C225     C      0.692320000000     0.484030000000     0.846660000000    -0.109829   
C226     C      0.826090000000     0.507590000000     0.611410000000     0.0863398  
C227     C      0.875860000000     0.502050000000     0.663130000000     0.0866619  
C228     C      0.795180000000     0.507450000000     0.640530000000    -0.102751   
C229     C      0.735640000000     0.481640000000     0.706120000000    -0.0355387  
C230     C      0.705670000000     0.479250000000     0.736180000000    -0.0348718  
C231     C      0.772160000000     0.502650000000     0.713420000000    -0.00904379 
C232     C      0.845700000000     0.501560000000     0.692990000000    -0.102711   
C233     C      0.711660000000     0.497550000000     0.774340000000    -0.0109749  
C234     C      0.639560000000     0.499140000000     0.798820000000    -0.10602    
C235     C      0.747870000000     0.518960000000     0.781510000000    -0.0349707  
C236     C      0.611180000000     0.496550000000     0.830250000000     0.0873016  
C237     C      0.663300000000     0.480800000000     0.877800000000     0.106318   
C238     C      0.777680000000     0.521610000000     0.751400000000    -0.0356047  
C239     C      0.804700000000     0.504090000000     0.681940000000     0.0545667  
C240     C      0.680710000000     0.493710000000     0.807000000000     0.0586884  
C241     C      0.796450000000     0.849310000000     0.007100000000    -0.105126   
C242     C      0.663310000000     0.613180000000     0.995120000000     0.086247   
C243     C      0.613040000000     0.664350000000     0.001420000000     0.0897593  
C244     C      0.693820000000     0.642670000000     0.993950000000    -0.102289   
C245     C      0.754020000000     0.709310000000     0.013960000000    -0.031742   
C246     C      0.783940000000     0.739470000000     0.013230000000    -0.031263   
C247     C      0.716000000000     0.715940000000     0.995550000000    -0.0120968  
C248     C      0.642830000000     0.694600000000     0.000800000000    -0.098143   
C249     C      0.776400000000     0.777120000000     0.994480000000    -0.0139566  
C250     C      0.847790000000     0.801990000000     0.986280000000    -0.104162   
C251     C      0.738630000000     0.783750000000     0.975830000000    -0.0351672  
C252     C      0.876370000000     0.833270000000     0.987860000000     0.0837449  
C253     C      0.825750000000     0.880250000000     0.009500000000     0.108459   
C254     C      0.708870000000     0.753460000000     0.976150000000    -0.0356519  
C255     C      0.683860000000     0.684030000000     0.996770000000     0.0511064  
C256     C      0.807300000000     0.809940000000     0.995530000000     0.0545099  
C257     C      0.846780000000     0.197580000000     0.013100000000    -0.107496   
C258     C      0.610640000000     0.328640000000     0.989670000000     0.0899092  
C259     C      0.661640000000     0.379090000000     0.996220000000     0.0905264  
C260     C      0.639980000000     0.297970000000     0.990060000000    -0.106789   
C261     C      0.706100000000     0.239850000000     0.017830000000    -0.0266419  
C262     C      0.736460000000     0.210280000000     0.020680000000    -0.0395457  
C263     C      0.712740000000     0.275890000000     0.995700000000    -0.0179378  
C264     C      0.691710000000     0.349220000000     0.996780000000    -0.11098    
C265     C      0.774140000000     0.216180000000     0.001580000000    -0.00204105 
C266     C      0.798700000000     0.144070000000     0.001830000000    -0.0977546  
C267     C      0.780580000000     0.251930000000     0.979010000000    -0.0433742  
C268     C      0.830150000000     0.115830000000     0.004220000000     0.0843514  
C269     C      0.878090000000     0.168730000000     0.015890000000     0.106051   
C270     C      0.750220000000     0.281410000000     0.976050000000    -0.030433   
C271     C      0.681090000000     0.308050000000     0.993920000000     0.0601254  
C272     C      0.806930000000     0.185480000000     0.005480000000     0.0548415  
C273     C      0.143930000000     0.798260000000     0.989830000000    -0.109202   
C274     C      0.379550000000     0.665240000000     0.997580000000     0.0850694  
C275     C      0.328670000000     0.615170000000     0.988040000000     0.0888891  
C276     C      0.350240000000     0.695890000000     0.998530000000    -0.108257   
C277     C      0.283770000000     0.756450000000     0.978070000000    -0.0344551  
C278     C      0.253710000000     0.786450000000     0.979570000000    -0.0354658  
C279     C      0.277410000000     0.718200000000     0.996260000000    -0.0145478  
C280     C      0.298570000000     0.645100000000     0.988740000000    -0.105509   
C281     C      0.216560000000     0.778780000000     0.999090000000    -0.0136082  
C282     C      0.191810000000     0.850610000000     0.006310000000    -0.101395   
C283     C      0.210390000000     0.740780000000     0.017700000000    -0.0316874  
C284     C      0.160420000000     0.879100000000     0.005330000000     0.0892331  
C285     C      0.112760000000     0.827340000000     0.988360000000     0.105317   
C286     C      0.240470000000     0.710880000000     0.016380000000    -0.0305472  
C287     C      0.309130000000     0.686040000000     0.994340000000     0.0578993  
C288     C      0.183690000000     0.809680000000     0.998780000000     0.0549923  
C289     C      0.145960000000     0.193950000000     0.011770000000    -0.10188    
C290     C      0.380300000000     0.329620000000     0.997400000000     0.0830262  
C291     C      0.329080000000     0.379600000000     0.005680000000     0.0861975  
C292     C      0.351150000000     0.298780000000     0.996710000000    -0.108762   
C293     C      0.278730000000     0.245630000000     0.970960000000    -0.037567   
C294     C      0.248680000000     0.215490000000     0.970660000000    -0.0415201  
C295     C      0.278800000000     0.276010000000     0.001080000000    -0.00760896 
C296     C      0.299180000000     0.349400000000     0.005820000000    -0.105028   
C297     C      0.218320000000     0.214820000000     0.000770000000     0.000598884
C298     C      0.192920000000     0.143450000000     0.988340000000    -0.100082   
C299     C      0.219180000000     0.244790000000     0.031430000000    -0.0382442  
C300     C      0.161550000000     0.114800000000     0.988440000000     0.0812994  
C301     C      0.115070000000     0.164590000000     0.012780000000     0.105281   
C302     C      0.248810000000     0.275180000000     0.031350000000    -0.0339682  
C303     C      0.310080000000     0.308480000000     0.001080000000     0.0590669  
C304     C      0.185370000000     0.183650000000     0.999970000000     0.0458217  
C305     C      0.795130000000     0.993390000000     0.850850000000    -0.115044   
C306     C      0.663370000000     0.013400000000     0.613530000000     0.0884162  
C307     C      0.613060000000     0.005960000000     0.664520000000     0.0878717  
C308     C      0.693900000000     0.013680000000     0.643100000000    -0.103053   
C309     C      0.748520000000     0.034550000000     0.715970000000    -0.0367632  
C310     C      0.778060000000     0.032880000000     0.746540000000    -0.0340984  
C311     C      0.715760000000     0.007160000000     0.716050000000    -0.00395775 
C312     C      0.642800000000     0.005740000000     0.694760000000    -0.102585   
C313     C      0.775640000000     0.003570000000     0.777700000000    -0.00759862 
C314     C      0.847510000000     0.008830000000     0.802750000000    -0.106666   
C315     C      0.743180000000     0.975750000000     0.777210000000    -0.0380522  
C316     C      0.875960000000     0.007110000000     0.834150000000     0.0909699  
C317     C      0.824230000000     0.991100000000     0.882020000000     0.105762   
C318     C      0.713540000000     0.977660000000     0.746900000000    -0.0409177  
C319     C      0.683800000000     0.009190000000     0.684230000000     0.0545289  
C320     C      0.806510000000     0.002130000000     0.810830000000     0.0637951  
C321     C      0.142500000000     0.013020000000     0.797930000000    -0.11145    
C322     C      0.379530000000     0.992780000000     0.666480000000     0.0862985  
C323     C      0.328690000000     0.995450000000     0.615580000000     0.0871012  
C324     C      0.349940000000     0.993380000000     0.696950000000    -0.10429    
C325     C      0.282920000000     0.019290000000     0.754670000000    -0.0273376  
C326     C      0.252510000000     0.021520000000     0.784260000000    -0.0378938  
C327     C      0.276710000000     0.997160000000     0.718540000000    -0.0167813  
C328     C      0.298390000000     0.996400000000     0.645240000000    -0.104275   
C329     C      0.215070000000     0.001970000000     0.778270000000    -0.00560662 
C330     C      0.191110000000     0.999600000000     0.850470000000    -0.121348   
C331     C      0.208850000000     0.979720000000     0.742310000000    -0.0423876  
C332     C      0.159980000000     0.001180000000     0.879120000000     0.101962   
C333     C      0.111560000000     0.015260000000     0.827290000000     0.107206   
C334     C      0.239350000000     0.977190000000     0.712890000000    -0.0313205  
C335     C      0.308730000000     0.995470000000     0.686580000000     0.0565442  
C336     C      0.182470000000     0.004790000000     0.809320000000     0.0663371  
C337     C      0.297150000000     0.007330000000     0.347590000000    -0.113363   
C338     C      0.164760000000     0.987190000000     0.111010000000     0.085421   
C339     C      0.115070000000     0.995300000000     0.162510000000     0.0853835  
C340     C      0.195670000000     0.987920000000     0.140150000000    -0.104781   
C341     C      0.251290000000     0.968260000000     0.212360000000    -0.0368338  
C342     C      0.280930000000     0.969950000000     0.242800000000    -0.0308703  
C343     C      0.218360000000     0.995450000000     0.212730000000    -0.0129398  
C344     C      0.145180000000     0.996450000000     0.192330000000    -0.105195   
C345     C      0.278380000000     0.999000000000     0.274140000000    -0.0233751  
C346     C      0.350120000000     0.994150000000     0.299440000000    -0.114045   
C347     C      0.245850000000     0.026720000000     0.273910000000    -0.0270342  
C348     C      0.378280000000     0.995120000000     0.331110000000     0.0859894  
C349     C      0.325930000000     0.008730000000     0.379080000000     0.108051   
C350     C      0.216160000000     0.024870000000     0.243670000000    -0.0327021  
C351     C      0.186060000000     0.993040000000     0.181320000000     0.0553004  
C352     C      0.308990000000     0.000030000000     0.307440000000     0.0718095  
C353     C      0.848350000000     0.998170000000     0.199910000000    -0.115058   
C354     C      0.610230000000     0.998030000000     0.329670000000     0.0860067  
C355     C      0.661210000000     0.996100000000     0.380480000000     0.0849239  
C356     C      0.639760000000     0.999480000000     0.299190000000    -0.108404   
C357     C      0.708600000000     0.980260000000     0.240720000000    -0.0421326  
C358     C      0.739170000000     0.981550000000     0.211240000000    -0.0376686  
C359     C      0.712990000000     0.001450000000     0.277660000000     0.000612457
C360     C      0.691460000000     0.997320000000     0.350800000000    -0.103334   
C361     C      0.774900000000     0.003870000000     0.218130000000    -0.00807718 
C362     C      0.800070000000     0.008300000000     0.146390000000    -0.105685   
C363     C      0.779100000000     0.025460000000     0.254770000000    -0.0334842  
C364     C      0.831700000000     0.007420000000     0.118250000000     0.0880366  
C365     C      0.879870000000     0.996750000000     0.171150000000     0.104213   
C366     C      0.748480000000     0.024370000000     0.284130000000    -0.0380469  
C367     C      0.681000000000     0.999370000000     0.309550000000     0.0494804  
C368     C      0.808190000000     0.003750000000     0.187700000000     0.0638311  
C369     C      0.014080000000     0.198900000000     0.852580000000    -0.110632   
C370     C      0.994960000000     0.330920000000     0.616050000000     0.0870716  
C371     C      0.000620000000     0.382330000000     0.666290000000     0.0902552  
C372     C      0.995920000000     0.300790000000     0.645930000000    -0.100024   
C373     C      0.020810000000     0.242650000000     0.712650000000    -0.039591   
C374     C      0.021540000000     0.212800000000     0.742890000000    -0.0321426  
C375     C      0.000660000000     0.279850000000     0.719220000000     0.00561812 
C376     C      0.002080000000     0.352970000000     0.696920000000    -0.0937694  
C377     C      0.002540000000     0.219680000000     0.780490000000    -0.00849146 
C378     C      0.994960000000     0.147850000000     0.804100000000    -0.111995   
C379     C      0.982520000000     0.256790000000     0.787200000000    -0.037386   
C380     C      0.995270000000     0.118970000000     0.835110000000     0.0838215  
C381     C      0.015130000000     0.169270000000     0.883320000000     0.106198   
C382     C      0.981400000000     0.286470000000     0.756840000000    -0.0448485  
C383     C      0.999640000000     0.311570000000     0.686980000000     0.0408192  
C384     C      0.003750000000     0.188360000000     0.812820000000     0.0651206  
C385     C      0.978320000000     0.852730000000     0.797030000000    -0.110734   
C386     C      0.994110000000     0.616000000000     0.663920000000     0.0871984  
C387     C      0.990930000000     0.666580000000     0.612640000000     0.0864727  
C388     C      0.993280000000     0.645810000000     0.694170000000    -0.103769   
C389     C      0.968810000000     0.712870000000     0.752210000000    -0.0348523  
C390     C      0.968050000000     0.742960000000     0.782270000000    -0.0342025  
C391     C      0.989940000000     0.719180000000     0.715510000000    -0.0144501  
C392     C      0.989710000000     0.697170000000     0.642150000000    -0.103488   
C393     C      0.988060000000     0.780210000000     0.776190000000    -0.0163506  
C394     C      0.993040000000     0.803320000000     0.848610000000    -0.105822   
C395     C      0.009100000000     0.786640000000     0.739580000000    -0.029288   
C396     C      0.992320000000     0.834220000000     0.877690000000     0.0849191  
C397     C      0.976920000000     0.883390000000     0.826800000000     0.106077   
C398     C      0.010180000000     0.756440000000     0.709670000000    -0.0298417  
C399     C      0.990970000000     0.687030000000     0.683570000000     0.0558559  
C400     C      0.986670000000     0.812510000000     0.807730000000     0.059495   
C401     C      0.017420000000     0.844300000000     0.192530000000    -0.10797    
C402     C      0.006560000000     0.610100000000     0.327730000000     0.0909305  
C403     C      0.010440000000     0.662230000000     0.377420000000     0.0884233  
C404     C      0.006890000000     0.638940000000     0.296580000000    -0.103133   
C405     C      0.027940000000     0.705240000000     0.235950000000    -0.0353103  
C406     C      0.027210000000     0.734950000000     0.205490000000    -0.0356356  
C407     C      0.007860000000     0.711720000000     0.273220000000    -0.00378537 
C408     C      0.011160000000     0.691870000000     0.346990000000    -0.102059   
C409     C      0.006740000000     0.771880000000     0.211840000000    -0.00375009 
C410     C      0.000270000000     0.796720000000     0.139990000000    -0.0981225  
C411     C      0.986240000000     0.778170000000     0.248760000000    -0.0408712  
C412     C      0.000340000000     0.828580000000     0.111870000000     0.0902703  
C413     C      0.018240000000     0.875810000000     0.163800000000     0.10589    
C414     C      0.986630000000     0.748390000000     0.279020000000    -0.0402596  
C415     C      0.008860000000     0.680460000000     0.305950000000     0.0551889  
C416     C      0.007960000000     0.804640000000     0.180910000000     0.0561071  
C417     C      0.997470000000     0.143100000000     0.200190000000    -0.126967   
C418     C      0.988640000000     0.380260000000     0.331810000000     0.0867733  
C419     C      0.988650000000     0.329300000000     0.382860000000     0.0857041  
C420     C      0.987950000000     0.350650000000     0.301430000000    -0.105769   
C421     C      0.011680000000     0.282540000000     0.244350000000    -0.0308632  
C422     C      0.012500000000     0.252330000000     0.214460000000    -0.0282523  
C423     C      0.988330000000     0.277440000000     0.279820000000    -0.0146481  
C424     C      0.988160000000     0.298870000000     0.353190000000    -0.105281   
C425     C      0.990200000000     0.216260000000     0.219490000000    -0.0196053  
C426     C      0.989900000000     0.192530000000     0.147160000000    -0.110405   
C427     C      0.966650000000     0.211220000000     0.254760000000    -0.0332247  
C428     C      0.991920000000     0.161340000000     0.118520000000     0.0862015  
C429     C      0.000050000000     0.112050000000     0.170950000000     0.117168   
C430     C      0.965640000000     0.241510000000     0.284560000000    -0.0355319  
C431     C      0.987980000000     0.309350000000     0.311870000000     0.055883   
C432     C      0.992220000000     0.183540000000     0.188480000000     0.0657155  
Eu1      Eu     0.996580000000     0.995490000000     0.070130000000     3.46558    
Eu2      Eu     0.994410000000     0.925480000000     0.996620000000     2.99929    
Eu3      Eu     0.995650000000     0.069940000000     0.999920000000     3.44323    
Eu4      Eu     0.923110000000     0.999070000000     0.000420000000     3.05744    
Eu5      Eu     0.067460000000     0.996620000000     0.995950000000     3.46475    
Eu6      Eu     0.993740000000     0.000140000000     0.926060000000     3.06861    
Eu7      Eu     0.996130000000     0.497060000000     0.425980000000     3.491      
Eu8      Eu     0.997840000000     0.569900000000     0.496560000000     3.01225    
Eu9      Eu     0.992720000000     0.425610000000     0.499190000000     3.49584    
Eu10     Eu     0.922920000000     0.499710000000     0.496160000000     3.05205    
Eu11     Eu     0.067670000000     0.495790000000     0.499550000000     3.49421    
Eu12     Eu     0.994260000000     0.498430000000     0.570050000000     3.03375    
Eu13     Eu     0.494070000000     0.996310000000     0.425730000000     3.45493    
Eu14     Eu     0.422870000000     0.995600000000     0.498380000000     3.0214     
Eu15     Eu     0.567260000000     0.999560000000     0.497830000000     3.4645     
Eu16     Eu     0.497550000000     0.925600000000     0.498390000000     3.07996    
Eu17     Eu     0.492460000000     0.069630000000     0.497580000000     3.53876    
Eu18     Eu     0.495850000000     0.998550000000     0.570510000000     3.02722    
Eu19     Eu     0.423350000000     0.498020000000     0.998640000000     3.46451    
Eu20     Eu     0.495650000000     0.569680000000     0.997390000000     3.04224    
Eu21     Eu     0.495750000000     0.425400000000     0.999140000000     3.46814    
Eu22     Eu     0.495480000000     0.497950000000     0.070370000000     3.08164    
Eu23     Eu     0.495930000000     0.497400000000     0.925750000000     3.48551    
Eu24     Eu     0.567800000000     0.496900000000     0.997710000000     3.04303    
H1       H      0.959180000000     0.958630000000     0.065740000000    -0.168758   
H2       H      0.056190000000     0.054550000000     0.057710000000     0.414664   
H3       H      0.957850000000     0.066900000000     0.963360000000    -0.16566    
H4       H      0.061060000000     0.960730000000     0.957960000000    -0.17848    
H5       H      0.960110000000     0.535310000000     0.429180000000    -0.17358    
H6       H      0.053410000000     0.435650000000     0.440620000000     0.414879   
H7       H      0.955240000000     0.432010000000     0.535480000000    -0.178137   
H8       H      0.063170000000     0.533570000000     0.535930000000    -0.182632   
H9       H      0.458100000000     0.958110000000     0.431000000000    -0.168728   
H10      H      0.551610000000     0.057900000000     0.437510000000     0.413494   
H11      H      0.563770000000     0.962860000000     0.535320000000    -0.179026   
H12      H      0.456080000000     0.064330000000     0.535240000000    -0.185718   
H13      H      0.428570000000     0.535230000000     0.035230000000    -0.180696   
H14      H      0.436440000000     0.438020000000     0.939370000000     0.410591   
H15      H      0.532640000000     0.430060000000     0.036440000000    -0.16877    
H16      H      0.533080000000     0.534560000000     0.930070000000    -0.173121   
H17      H      0.480700000000     0.173060000000     0.410850000000     0.0193369  
H18      H      0.494080000000     0.322100000000     0.083910000000     0.0210716  
H19      H      0.431480000000     0.247310000000     0.302640000000     0.0367226  
H20      H      0.530120000000     0.240420000000     0.188780000000     0.0364704  
H21      H      0.490920000000     0.268230000000     0.132980000000     0.0546084  
H22      H      0.530500000000     0.187460000000     0.240830000000     0.0364064  
H23      H      0.470850000000     0.355240000000     0.228200000000     0.0564284  
H24      H      0.477940000000     0.224620000000     0.358270000000     0.0534592  
H25      H      0.487010000000     0.130900000000     0.266910000000     0.0541097  
H26      H      0.430440000000     0.299840000000     0.250280000000     0.0362259  
H27      H      0.489890000000     0.079950000000     0.319980000000     0.0188451  
H28      H      0.504920000000     0.584160000000     0.174120000000     0.0201134  
H29      H      0.494050000000     0.911370000000     0.322890000000     0.0186066  
H30      H      0.464980000000     0.685620000000     0.258050000000     0.0366167  
H31      H      0.541570000000     0.813350000000     0.233720000000     0.0363695  
H32      H      0.493510000000     0.861540000000     0.269500000000     0.0539172  
H33      H      0.540420000000     0.760920000000     0.181110000000     0.0364663  
H34      H      0.521090000000     0.767570000000     0.355620000000     0.0572641  
H35      H      0.507250000000     0.636280000000     0.225850000000     0.0534289  
H36      H      0.497210000000     0.728230000000     0.132610000000     0.0536206  
H37      H      0.467020000000     0.737660000000     0.310800000000     0.0372025  
H38      H      0.496240000000     0.675470000000     0.081440000000     0.0206632  
H39      H      0.487300000000     0.911800000000     0.675310000000     0.0188094  
H40      H      0.499600000000     0.582570000000     0.821790000000     0.0181875  
H41      H      0.437890000000     0.801620000000     0.746000000000     0.0368683  
H42      H      0.539000000000     0.689690000000     0.744030000000     0.0361984  
H43      H      0.499010000000     0.632370000000     0.768200000000     0.0535446  
H44      H      0.542140000000     0.742920000000     0.692270000000     0.0368176  
H45      H      0.470760000000     0.726010000000     0.854710000000     0.056247   
H46      H      0.484760000000     0.858920000000     0.726810000000     0.0531403  
H47      H      0.501110000000     0.768190000000     0.633470000000     0.0540584  
H48      H      0.434070000000     0.748090000000     0.797160000000     0.0361838  
H49      H      0.503920000000     0.821390000000     0.582830000000     0.0213333  
H50      H      0.500250000000     0.085990000000     0.673730000000     0.0199666  
H51      H      0.511040000000     0.412510000000     0.824210000000     0.0205893  
H52      H      0.548290000000     0.187730000000     0.754730000000     0.0367851  
H53      H      0.469480000000     0.314720000000     0.733960000000     0.0357577  
H54      H      0.515620000000     0.363740000000     0.770120000000     0.0538378  
H55      H      0.469610000000     0.262780000000     0.680930000000     0.0363338  
H56      H      0.494530000000     0.266620000000     0.854530000000     0.0566533  
H57      H      0.503570000000     0.138480000000     0.725040000000     0.0537362  
H58      H      0.510680000000     0.229410000000     0.630580000000     0.0539124  
H59      H      0.547490000000     0.239440000000     0.807950000000     0.0370508  
H60      H      0.506210000000     0.176300000000     0.579870000000     0.0215657  
H61      H      0.816410000000     0.415480000000     0.487520000000     0.0191746  
H62      H      0.666670000000     0.088140000000     0.509370000000     0.0203039  
H63      H      0.731920000000     0.315810000000     0.531470000000     0.0363113  
H64      H      0.752560000000     0.185470000000     0.458090000000     0.035721   
H65      H      0.719410000000     0.138560000000     0.508940000000     0.0536253  
H66      H      0.804870000000     0.237850000000     0.454790000000     0.0360175  
H67      H      0.631920000000     0.231820000000     0.484250000000     0.0567447  
H68      H      0.763580000000     0.364250000000     0.487400000000     0.0533167  
H69      H      0.855120000000     0.270620000000     0.494860000000     0.053292   
H70      H      0.679330000000     0.263660000000     0.533920000000     0.0368061  
H71      H      0.907060000000     0.322210000000     0.493610000000     0.0194531  
H72      H      0.674470000000     0.916260000000     0.483000000000     0.0187302  
H73      H      0.824250000000     0.589270000000     0.510340000000     0.0201131  
H74      H      0.762310000000     0.818430000000     0.525910000000     0.0360368  
H75      H      0.735840000000     0.684990000000     0.460370000000     0.036379   
H76      H      0.771860000000     0.640190000000     0.510490000000     0.053817   
H77      H      0.683630000000     0.737530000000     0.458560000000     0.0365055  
H78      H      0.858520000000     0.731200000000     0.476040000000     0.0566767  
H79      H      0.727320000000     0.864990000000     0.481970000000     0.0529624  
H80      H      0.636790000000     0.772120000000     0.501490000000     0.0537212  
H81      H      0.814740000000     0.766050000000     0.526950000000     0.0364866  
H82      H      0.584840000000     0.823670000000     0.501520000000     0.0210682  
H83      H      0.316240000000     0.079590000000     0.499920000000     0.0209772  
H84      H      0.167110000000     0.407500000000     0.492460000000     0.0169461  
H85      H      0.241480000000     0.186680000000     0.546240000000     0.0373096  
H86      H      0.242560000000     0.301100000000     0.447740000000     0.0353392  
H87      H      0.219420000000     0.356880000000     0.490180000000     0.05302    
H88      H      0.294910000000     0.248700000000     0.443540000000     0.0363229  
H89      H      0.131860000000     0.263610000000     0.515410000000     0.0563075  
H90      H      0.263300000000     0.130750000000     0.500490000000     0.0543101  
H91      H      0.353750000000     0.224010000000     0.483330000000     0.0535896  
H92      H      0.189580000000     0.239250000000     0.550920000000     0.0367425  
H93      H      0.405960000000     0.172300000000     0.482270000000     0.0202014  
H94      H      0.175460000000     0.578440000000     0.495640000000     0.0176119  
H95      H      0.323390000000     0.906950000000     0.489890000000     0.0212767  
H96      H      0.250590000000     0.685320000000     0.543900000000     0.0368931  
H97      H      0.247750000000     0.800540000000     0.446350000000     0.0366846  
H98      H      0.271290000000     0.856090000000     0.487750000000     0.0538483  
H99      H      0.195470000000     0.748030000000     0.442580000000     0.0371935  
H100     H      0.359260000000     0.763370000000     0.513860000000     0.0565299  
H101     H      0.228400000000     0.629730000000     0.495930000000     0.0535365  
H102     H      0.137320000000     0.723310000000     0.485340000000     0.0544548  
H103     H      0.302210000000     0.738180000000     0.548520000000     0.0364004  
H104     H      0.085090000000     0.671620000000     0.485080000000     0.0210058  
H105     H      0.672320000000     0.496790000000     0.083360000000     0.0207088  
H106     H      0.821820000000     0.496820000000     0.410110000000     0.0207907  
H107     H      0.747790000000     0.446990000000     0.188560000000     0.037245   
H108     H      0.740430000000     0.539690000000     0.307500000000     0.0364013  
H109     H      0.768290000000     0.496330000000     0.360960000000     0.0539498  
H110     H      0.687530000000     0.542550000000     0.255580000000     0.0368757  
H111     H      0.855190000000     0.484930000000     0.264570000000     0.0565938  
H112     H      0.724230000000     0.494940000000     0.135390000000     0.0541731  
H113     H      0.631450000000     0.500680000000     0.227710000000     0.0540897  
H114     H      0.800350000000     0.443720000000     0.240590000000     0.0367047  
H115     H      0.580140000000     0.502870000000     0.175130000000     0.0207065  
H116     H      0.318870000000     0.484140000000     0.085360000000     0.0194739  
H117     H      0.170440000000     0.511320000000     0.413390000000     0.0198552  
H118     H      0.234260000000     0.528890000000     0.184620000000     0.036524   
H119     H      0.262460000000     0.463920000000     0.317950000000     0.0354044  
H120     H      0.224110000000     0.512880000000     0.363490000000     0.0536478  
H121     H      0.314240000000     0.462300000000     0.264880000000     0.0358902  
H122     H      0.140300000000     0.476060000000     0.270780000000     0.057022   
H123     H      0.267540000000     0.484170000000     0.138070000000     0.0533239  
H124     H      0.360820000000     0.503710000000     0.228110000000     0.0535797  
H125     H      0.182370000000     0.529650000000     0.237430000000     0.0371766  
H126     H      0.411320000000     0.502620000000     0.175080000000     0.0207807  
H127     H      0.318860000000     0.498550000000     0.912680000000     0.0168816  
H128     H      0.169770000000     0.492380000000     0.585010000000     0.0197898  
H129     H      0.242000000000     0.448540000000     0.808760000000     0.035916   
H130     H      0.251990000000     0.536780000000     0.686680000000     0.0362636  
H131     H      0.223170000000     0.492500000000     0.634460000000     0.0537093  
H132     H      0.304730000000     0.540250000000     0.738720000000     0.0368507  
H133     H      0.135640000000     0.485550000000     0.730720000000     0.0568763  
H134     H      0.266930000000     0.496470000000     0.860650000000     0.0530483  
H135     H      0.359850000000     0.499130000000     0.768320000000     0.0530482  
H136     H      0.189560000000     0.444710000000     0.756660000000     0.0365093  
H137     H      0.411140000000     0.501620000000     0.820910000000     0.0184864  
H138     H      0.907050000000     0.499620000000     0.673290000000     0.0197223  
H139     H      0.579880000000     0.502470000000     0.822010000000     0.0180763  
H140     H      0.804990000000     0.538760000000     0.757870000000     0.036065   
H141     H      0.678250000000     0.462190000000     0.729920000000     0.0362961  
H142     H      0.629290000000     0.506480000000     0.768380000000     0.0536258  
H143     H      0.730540000000     0.466140000000     0.677500000000     0.0362357  
H144     H      0.724100000000     0.477930000000     0.852970000000     0.0567291  
H145     H      0.854610000000     0.498350000000     0.724540000000     0.0528742  
H146     H      0.763990000000     0.510220000000     0.630520000000     0.0528217  
H147     H      0.753060000000     0.533930000000     0.810420000000     0.0365765  
H148     H      0.817120000000     0.510130000000     0.579790000000     0.0190206  
H149     H      0.581780000000     0.674110000000     0.004600000000     0.0215001  
H150     H      0.907110000000     0.825320000000     0.979200000000     0.0204837  
H151     H      0.680370000000     0.759420000000     0.960900000000     0.0356858  
H152     H      0.812620000000     0.733740000000     0.028280000000     0.0369645  
H153     H      0.857320000000     0.771780000000     0.977160000000     0.0530575  
H154     H      0.760460000000     0.681110000000     0.029750000000     0.0367498  
H155     H      0.765220000000     0.855370000000     0.015780000000     0.0571495  
H156     H      0.633620000000     0.726080000000     0.003930000000     0.0536835  
H157     H      0.724980000000     0.632940000000     0.990190000000     0.052345   
H158     H      0.732200000000     0.812360000000     0.960750000000     0.036054   
H159     H      0.672630000000     0.581640000000     0.992560000000     0.0205229  
H160     H      0.671380000000     0.410440000000     0.999280000000     0.0189149  
H161     H      0.821590000000     0.084250000000     0.000010000000     0.0240877  
H162     H      0.756070000000     0.308460000000     0.958140000000     0.0346806  
H163     H      0.730770000000     0.183230000000     0.038630000000     0.0385598  
H164     H      0.768120000000     0.133430000000     0.996020000000     0.0499741  
H165     H      0.677790000000     0.234900000000     0.033810000000     0.0355248  
H166     H      0.853210000000     0.229700000000     0.017610000000     0.0570147  
H167     H      0.723070000000     0.358420000000     0.000400000000     0.0587766  
H168     H      0.630440000000     0.266560000000     0.987110000000     0.0537588  
H169     H      0.809070000000     0.257000000000     0.963360000000     0.0377186  
H170     H      0.579230000000     0.319330000000     0.986650000000     0.0205756  
H171     H      0.319000000000     0.583940000000     0.983660000000     0.0189261  
H172     H      0.168740000000     0.910250000000     0.012330000000     0.0209873  
H173     H      0.234870000000     0.682100000000     0.031440000000     0.0366145  
H174     H      0.259120000000     0.815270000000     0.964510000000     0.0354984  
H175     H      0.222280000000     0.860640000000     0.013550000000     0.0538683  
H176     H      0.311660000000     0.762960000000     0.961900000000     0.0352628  
H177     H      0.137560000000     0.766620000000     0.982680000000     0.0565879  
H178     H      0.267220000000     0.636130000000     0.984610000000     0.0532611  
H179     H      0.359810000000     0.727040000000     0.003490000000     0.0576815  
H180     H      0.182280000000     0.734200000000     0.033480000000     0.037454   
H181     H      0.410850000000     0.674380000000     0.001840000000     0.0243647  
H182     H      0.319220000000     0.410880000000     0.009230000000     0.0184334  
H183     H      0.169220000000     0.084330000000     0.978340000000     0.0211876  
H184     H      0.248580000000     0.297810000000     0.055330000000     0.0370268  
H185     H      0.248800000000     0.193270000000     0.946340000000     0.0376659  
H186     H      0.223100000000     0.133830000000     0.979510000000     0.0516344  
H187     H      0.301420000000     0.245710000000     0.947110000000     0.0360982  
H188     H      0.139360000000     0.225040000000     0.020790000000     0.0552221  
H189     H      0.267640000000     0.358100000000     0.009090000000     0.0541455  
H190     H      0.360800000000     0.267430000000     0.993360000000     0.0540662  
H191     H      0.197070000000     0.244720000000     0.055790000000     0.0372103  
H192     H      0.411730000000     0.320510000000     0.994070000000     0.0186604  
H193     H      0.581790000000     0.002880000000     0.674270000000     0.0204552  
H194     H      0.907140000000     0.013290000000     0.825650000000     0.0206789  
H195     H      0.689080000000     0.955640000000     0.747340000000     0.0370011  
H196     H      0.802340000000     0.055080000000     0.746190000000     0.0363118  
H197     H      0.857880000000     0.015070000000     0.772110000000     0.0549414  
H198     H      0.750850000000     0.057820000000     0.692750000000     0.0373115  
H199     H      0.763330000000     0.988190000000     0.857740000000     0.0567117  
H200     H      0.633650000000     0.002890000000     0.726290000000     0.0546756  
H201     H      0.725280000000     0.016330000000     0.633680000000     0.0538994  
H202     H      0.740790000000     0.952150000000     0.800090000000     0.0364095  
H203     H      0.672680000000     0.016330000000     0.582030000000     0.0194817  
H204     H      0.319020000000     0.996580000000     0.584080000000     0.0195483  
H205     H      0.168780000000     0.995620000000     0.910410000000     0.0118492  
H206     H      0.233720000000     0.959220000000     0.685860000000     0.0352743  
H207     H      0.257990000000     0.039260000000     0.811500000000     0.0376626  
H208     H      0.221770000000     0.993240000000     0.860540000000     0.055751   
H209     H      0.310990000000     0.035620000000     0.759820000000     0.0355372  
H210     H      0.135770000000     0.018710000000     0.766080000000     0.0588798  
H211     H      0.267040000000     0.998660000000     0.635650000000     0.0530871  
H212     H      0.359430000000     0.991870000000     0.728460000000     0.05202    
H213     H      0.180520000000     0.963830000000     0.737150000000     0.0378905  
H214     H      0.410960000000     0.991210000000     0.676060000000     0.0185675  
H215     H      0.083950000000     0.998690000000     0.172580000000     0.0191353  
H216     H      0.409620000000     0.989630000000     0.322720000000     0.0179977  
H217     H      0.191580000000     0.046750000000     0.244340000000     0.0371783  
H218     H      0.305330000000     0.947870000000     0.242280000000     0.0348449  
H219     H      0.360750000000     0.989050000000     0.268670000000     0.0551881  
H220     H      0.253620000000     0.945040000000     0.189080000000     0.0371069  
H221     H      0.265240000000     0.012010000000     0.354330000000     0.0587877  
H222     H      0.136390000000     0.999920000000     0.223890000000     0.0532335  
H223     H      0.226950000000     0.985370000000     0.130350000000     0.0530258  
H224     H      0.243400000000     0.050090000000     0.297010000000     0.0352359  
H225     H      0.173660000000     0.983530000000     0.079470000000     0.0181364  
H226     H      0.670950000000     0.994600000000     0.411950000000     0.0175852  
H227     H      0.823100000000     0.011790000000     0.086710000000     0.0232973  
H228     H      0.752540000000     0.041750000000     0.311820000000     0.0373051  
H229     H      0.735290000000     0.964220000000     0.183470000000     0.0361759  
H230     H      0.769320000000     0.013030000000     0.135730000000     0.0559637  
H231     H      0.681950000000     0.961880000000     0.234910000000     0.0372767  
H232     H      0.854840000000     0.993670000000     0.232000000000     0.0566045  
H233     H      0.722930000000     0.996290000000     0.360260000000     0.0510359  
H234     H      0.630200000000     0.001440000000     0.267730000000     0.057254   
H235     H      0.806030000000     0.043420000000     0.260660000000     0.0369595  
H236     H      0.578750000000     0.998560000000     0.320130000000     0.0163745  
H237     H      0.002460000000     0.413920000000     0.675530000000     0.0221857  
H238     H      0.986850000000     0.088280000000     0.826430000000     0.0206431  
H239     H      0.964940000000     0.314380000000     0.762720000000     0.0373385  
H240     H      0.037600000000     0.184600000000     0.737150000000     0.037331   
H241     H      0.986830000000     0.138570000000     0.773530000000     0.0544811  
H242     H      0.036560000000     0.236770000000     0.684340000000     0.0391019  
H243     H      0.022410000000     0.230200000000     0.859210000000     0.0582626  
H244     H      0.005560000000     0.362790000000     0.728180000000     0.0526846  
H245     H      0.993100000000     0.269240000000     0.636800000000     0.0508309  
H246     H      0.967200000000     0.262620000000     0.815780000000     0.0356931  
H247     H      0.991600000000     0.321020000000     0.584790000000     0.0196789  
H248     H      0.989720000000     0.675960000000     0.581040000000     0.0205222  
H249     H      0.998580000000     0.825060000000     0.908730000000     0.0201904  
H250     H      0.027390000000     0.762130000000     0.682190000000     0.0370419  
H251     H      0.951150000000     0.737370000000     0.809980000000     0.0359332  
H252     H      0.999500000000     0.772420000000     0.858120000000     0.0535736  
H253     H      0.952280000000     0.684890000000     0.757530000000     0.0358583  
H254     H      0.971730000000     0.859860000000     0.765440000000     0.0563156  
H255     H      0.987240000000     0.728570000000     0.632430000000     0.0525624  
H256     H      0.995040000000     0.636440000000     0.725710000000     0.0530043  
H257     H      0.025220000000     0.814890000000     0.734300000000     0.0374057  
H258     H      0.996050000000     0.584570000000     0.673790000000     0.0202053  
H259     H      0.012010000000     0.672570000000     0.408700000000     0.0213825  
H260     H      0.992820000000     0.820620000000     0.080770000000     0.0173472  
H261     H      0.970030000000     0.754070000000     0.306880000000     0.0361956  
H262     H      0.043590000000     0.729540000000     0.177430000000     0.0381263  
H263     H      0.993110000000     0.766180000000     0.129840000000     0.0494949  
H264     H      0.044980000000     0.677570000000     0.230600000000     0.0371092  
H265     H      0.025180000000     0.850320000000     0.224100000000     0.0577371  
H266     H      0.013640000000     0.723560000000     0.355720000000     0.0545916  
H267     H      0.004630000000     0.628650000000     0.265360000000     0.0550201  
H268     H      0.969750000000     0.806180000000     0.254200000000     0.037013   
H269     H      0.004480000000     0.578380000000     0.318860000000     0.0228758  
H270     H      0.989080000000     0.319700000000     0.414410000000     0.0178192  
H271     H      0.989530000000     0.170600000000     0.087000000000     0.0216365  
H272     H      0.946780000000     0.236900000000     0.311140000000     0.0361594  
H273     H      0.031360000000     0.256810000000     0.187840000000     0.0357845  
H274     H      0.985920000000     0.223600000000     0.136850000000     0.0546339  
H275     H      0.030040000000     0.309530000000     0.240000000000     0.0363717  
H276     H      0.000700000000     0.136030000000     0.232320000000     0.0648913  
H277     H      0.988700000000     0.267310000000     0.362700000000     0.0525593  
H278     H      0.987110000000     0.360210000000     0.269900000000     0.0528312  
H279     H      0.948730000000     0.183930000000     0.259180000000     0.0359233  
H280     H      0.988750000000     0.411770000000     0.322100000000     0.0205568  
N1       N      0.483990000000     0.371040000000     0.126500000000    -0.216723   
N2       N      0.485680000000     0.122570000000     0.369510000000    -0.220859   
N3       N      0.507130000000     0.869220000000     0.371530000000    -0.217187   
N4       N      0.500270000000     0.625760000000     0.123830000000    -0.215851   
N5       N      0.485320000000     0.624490000000     0.870160000000    -0.217224   
N6       N      0.495530000000     0.870690000000     0.625130000000    -0.215696   
N7       N      0.500040000000     0.368880000000     0.872090000000    -0.219794   
N8       N      0.502670000000     0.127070000000     0.622860000000    -0.21797    
N9       N      0.617480000000     0.129670000000     0.496930000000    -0.219729   
N10      N      0.865770000000     0.372870000000     0.490870000000    -0.217774   
N11      N      0.872820000000     0.629770000000     0.493250000000    -0.214653   
N12      N      0.625610000000     0.873970000000     0.492240000000    -0.217677   
N13      N      0.118040000000     0.366040000000     0.505570000000    -0.219405   
N14      N      0.365180000000     0.121970000000     0.491330000000    -0.217532   
N15      N      0.372520000000     0.865780000000     0.503580000000    -0.214087   
N16      N      0.126210000000     0.621070000000     0.490830000000    -0.217696   
N17      N      0.870970000000     0.491020000000     0.367020000000    -0.216564   
N18      N      0.622230000000     0.499650000000     0.125200000000    -0.215786   
N19      N      0.123340000000     0.493230000000     0.371700000000    -0.220035   
N20      N      0.369020000000     0.493360000000     0.126090000000    -0.217426   
N21      N      0.120410000000     0.488740000000     0.628050000000    -0.215758   
N22      N      0.369020000000     0.499910000000     0.870880000000    -0.220461   
N23      N      0.622520000000     0.488740000000     0.869870000000    -0.216767   
N24      N      0.866190000000     0.504600000000     0.622550000000    -0.214966   
N25      N      0.865940000000     0.872420000000     0.998750000000    -0.216071   
N26      N      0.623140000000     0.623890000000     0.998530000000    -0.216633   
N27      N      0.869970000000     0.127470000000     0.010020000000    -0.215559   
N28      N      0.621330000000     0.368930000000     0.993020000000    -0.218542   
N29      N      0.120920000000     0.868180000000     0.996790000000    -0.217954   
N30      N      0.368900000000     0.625100000000     0.992650000000    -0.217359   
N31      N      0.122620000000     0.124870000000     0.999920000000    -0.220131   
N32      N      0.369410000000     0.369820000000     0.001580000000    -0.218154   
N33      N      0.865030000000     0.998840000000     0.873810000000    -0.216458   
N34      N      0.623240000000     0.009030000000     0.624080000000    -0.216864   
N35      N      0.120110000000     0.007820000000     0.868160000000    -0.218621   
N36      N      0.369040000000     0.994030000000     0.626040000000    -0.215238   
N37      N      0.366850000000     0.001610000000     0.370960000000    -0.215374   
N38      N      0.124720000000     0.991090000000     0.122060000000    -0.220296   
N39      N      0.871560000000     0.001720000000     0.129790000000    -0.213867   
N40      N      0.620830000000     0.996730000000     0.370090000000    -0.220796   
N41      N      0.004350000000     0.129130000000     0.874800000000    -0.215065   
N42      N      0.997360000000     0.371440000000     0.626090000000    -0.220102   
N43      N      0.985400000000     0.874310000000     0.867370000000    -0.214538   
N44      N      0.993050000000     0.626230000000     0.623390000000    -0.214996   
N45      N      0.008030000000     0.868230000000     0.123310000000    -0.216175   
N46      N      0.007710000000     0.621630000000     0.367920000000    -0.217172   
N47      N      0.996180000000     0.121080000000     0.129610000000    -0.222931   
N48      N      0.989190000000     0.369750000000     0.372280000000    -0.221186   
O1       O      0.995710000000     0.105220000000     0.059860000000    -0.616483   
O2       O      0.000210000000     0.887200000000     0.054710000000    -0.554295   
O3       O      0.940230000000     0.000390000000     0.109620000000    -0.603163   
O4       O      0.055790000000     0.992860000000     0.105830000000    -0.621277   
O5       O      0.105850000000     0.992190000000     0.053540000000    -0.62427    
O6       O      0.887910000000     0.000490000000     0.060270000000    -0.567364   
O7       O      0.003130000000     0.937410000000     0.106370000000    -0.613054   
O8       O      0.995850000000     0.052520000000     0.108990000000    -0.625573   
O9       O      0.036000000000     0.956740000000     0.036220000000    -1.45265    
O10      O      0.957060000000     0.037660000000     0.040720000000    -1.4597     
O11      O      0.949730000000     0.951170000000     0.039970000000    -1.06377    
O12      O      0.038440000000     0.037870000000     0.040020000000    -1.62367    
O13      O      0.989710000000     0.890170000000     0.936920000000    -0.560704   
O14      O      0.001240000000     0.109280000000     0.943470000000    -0.605555   
O15      O      0.885250000000     0.941270000000     0.998780000000    -0.568965   
O16      O      0.104280000000     0.937760000000     0.998120000000    -0.607498   
O17      O      0.104960000000     0.055560000000     0.996080000000    -0.614192   
O18      O      0.887220000000     0.058280000000     0.005770000000    -0.56903    
O19      O      0.934350000000     0.000160000000     0.890300000000    -0.560813   
O20      O      0.051510000000     0.003180000000     0.887830000000    -0.565878   
O21      O      0.884840000000     0.999400000000     0.942700000000    -0.565627   
O22      O      0.103660000000     0.004180000000     0.937500000000    -0.610942   
O23      O      0.935180000000     0.889200000000     0.997000000000    -0.559522   
O24      O      0.938840000000     0.108430000000     0.006950000000    -0.606648   
O25      O      0.053930000000     0.106540000000     0.998470000000    -0.622588   
O26      O      0.052320000000     0.887860000000     0.996490000000    -0.567805   
O27      O      0.990260000000     0.942820000000     0.887490000000    -0.570614   
O28      O      0.997680000000     0.059950000000     0.890960000000    -0.57867    
O29      O      0.035010000000     0.038720000000     0.958870000000    -1.45929    
O30      O      0.954250000000     0.959960000000     0.958710000000    -1.37084    
O31      O      0.948660000000     0.041490000000     0.954450000000    -1.06789    
O32      O      0.035120000000     0.952510000000     0.949900000000    -1.04945    
O33      O      0.990440000000     0.387750000000     0.441070000000    -0.627258   
O34      O      0.003220000000     0.605700000000     0.437130000000    -0.561228   
O35      O      0.939580000000     0.492420000000     0.387070000000    -0.612992   
O36      O      0.054650000000     0.496450000000     0.389740000000    -0.626757   
O37      O      0.105440000000     0.495110000000     0.440950000000    -0.622699   
O38      O      0.887480000000     0.496200000000     0.436430000000    -0.570822   
O39      O      0.003760000000     0.553430000000     0.387020000000    -0.611364   
O40      O      0.992670000000     0.438490000000     0.389430000000    -0.628985   
O41      O      0.037640000000     0.535360000000     0.457850000000    -1.46276    
O42      O      0.955160000000     0.458030000000     0.457530000000    -1.47265    
O43      O      0.951480000000     0.544580000000     0.454630000000    -1.06403    
O44      O      0.036500000000     0.454000000000     0.457480000000    -1.63922    
O45      O      0.995750000000     0.607940000000     0.554660000000    -0.560793   
O46      O      0.995830000000     0.388260000000     0.557170000000    -0.616947   
O47      O      0.888040000000     0.559930000000     0.495150000000    -0.562994   
O48      O      0.107160000000     0.552510000000     0.493970000000    -0.612454   
O49      O      0.102550000000     0.435790000000     0.503240000000    -0.626319   
O50      O      0.884590000000     0.441590000000     0.493330000000    -0.567679   
O51      O      0.935150000000     0.501600000000     0.606100000000    -0.562523   
O52      O      0.052020000000     0.494720000000     0.607980000000    -0.566164   
O53      O      0.884880000000     0.503340000000     0.553980000000    -0.569024   
O54      O      0.103960000000     0.489900000000     0.558400000000    -0.608842   
O55      O      0.940970000000     0.608950000000     0.495850000000    -0.563743   
O56      O      0.934560000000     0.389200000000     0.493360000000    -0.615058   
O57      O      0.049770000000     0.386720000000     0.502480000000    -0.626172   
O58      O      0.057340000000     0.605040000000     0.493680000000    -0.5686     
O59      O      0.993720000000     0.557270000000     0.606480000000    -0.567937   
O60      O      0.995520000000     0.440100000000     0.607750000000    -0.572192   
O61      O      0.033650000000     0.456770000000     0.538690000000    -1.46428    
O62      O      0.956260000000     0.538990000000     0.536100000000    -1.36351    
O63      O      0.947220000000     0.458070000000     0.543560000000    -1.06005    
O64      O      0.037670000000     0.543110000000     0.543980000000    -1.04752    
O65      O      0.603710000000     0.997740000000     0.438990000000    -0.626833   
O66      O      0.385710000000     0.997110000000     0.439900000000    -0.573832   
O67      O      0.501840000000     0.938390000000     0.388540000000    -0.61083    
O68      O      0.490030000000     0.054140000000     0.387930000000    -0.625476   
O69      O      0.488370000000     0.105960000000     0.438580000000    -0.628817   
O70      O      0.501580000000     0.888190000000     0.440270000000    -0.574991   
O71      O      0.435950000000     0.000210000000     0.388360000000    -0.603894   
O72      O      0.552230000000     0.996070000000     0.388100000000    -0.622469   
O73      O      0.454030000000     0.036130000000     0.457640000000    -1.46745    
O74      O      0.536290000000     0.958960000000     0.457800000000    -1.4664     
O75      O      0.450090000000     0.949630000000     0.456970000000    -1.06422    
O76      O      0.535090000000     0.040130000000     0.455340000000    -1.63451    
O77      O      0.386310000000     0.994140000000     0.557150000000    -0.565117   
O78      O      0.605320000000     0.007110000000     0.555230000000    -0.606753   
O79      O      0.440680000000     0.886590000000     0.500560000000    -0.567654   
O80      O      0.434120000000     0.105930000000     0.492090000000    -0.618858   
O81      O      0.549290000000     0.108650000000     0.498230000000    -0.634417   
O82      O      0.556900000000     0.890300000000     0.496090000000    -0.575612   
O83      O      0.495450000000     0.939860000000     0.607930000000    -0.561683   
O84      O      0.498250000000     0.057990000000     0.606460000000    -0.56868    
O85      O      0.497610000000     0.888640000000     0.556650000000    -0.57258    
O86      O      0.498430000000     0.108450000000     0.554450000000    -0.615699   
O87      O      0.387850000000     0.935610000000     0.501240000000    -0.560021   
O88      O      0.606700000000     0.942680000000     0.492610000000    -0.606245   
O89      O      0.602170000000     0.059770000000     0.498090000000    -0.621344   
O90      O      0.384360000000     0.053500000000     0.495520000000    -0.563381   
O91      O      0.437700000000     0.996020000000     0.608150000000    -0.564125   
O92      O      0.554720000000     0.003130000000     0.606840000000    -0.5673     
O93      O      0.534280000000     0.039460000000     0.536900000000    -1.46661    
O94      O      0.457140000000     0.957290000000     0.538390000000    -1.37029    
O95      O      0.538550000000     0.953400000000     0.544230000000    -1.0589     
O96      O      0.448260000000     0.038440000000     0.544090000000    -1.05135    
O97      O      0.437760000000     0.388010000000     0.000290000000    -0.625349   
O98      O      0.437280000000     0.606880000000     0.995450000000    -0.570994   
O99      O      0.385810000000     0.493090000000     0.056840000000    -0.604407   
O100     O      0.386410000000     0.499490000000     0.939860000000    -0.625187   
O101     O      0.437600000000     0.499140000000     0.888640000000    -0.628814   
O102     O      0.437260000000     0.496570000000     0.107600000000    -0.576144   
O103     O      0.385870000000     0.555990000000     0.992870000000    -0.609945   
O104     O      0.386420000000     0.439050000000     0.001260000000    -0.618963   
O105     O      0.455470000000     0.536780000000     0.957640000000    -1.46389    
O106     O      0.455290000000     0.457720000000     0.038130000000    -1.4671     
O107     O      0.454090000000     0.544070000000     0.043890000000    -1.05767    
O108     O      0.453740000000     0.455570000000     0.956660000000    -1.63058    
O109     O      0.554300000000     0.606650000000     0.998500000000    -0.562525   
O110     O      0.552830000000     0.386960000000     0.994150000000    -0.612224   
O111     O      0.498110000000     0.556750000000     0.106970000000    -0.569306   
O112     O      0.489540000000     0.555240000000     0.887720000000    -0.60761    
O113     O      0.497810000000     0.438230000000     0.889320000000    -0.625489   
O114     O      0.491440000000     0.439700000000     0.107610000000    -0.575653   
O115     O      0.604840000000     0.498600000000     0.056290000000    -0.562593   
O116     O      0.604330000000     0.493290000000     0.938910000000    -0.569873   
O117     O      0.553680000000     0.499250000000     0.107520000000    -0.570052   
O118     O      0.553560000000     0.491360000000     0.887790000000    -0.610633   
O119     O      0.497720000000     0.607530000000     0.055270000000    -0.565906   
O120     O      0.488650000000     0.388190000000     0.057260000000    -0.604594   
O121     O      0.498400000000     0.387990000000     0.941060000000    -0.623911   
O122     O      0.492010000000     0.606140000000     0.938800000000    -0.575635   
O123     O      0.605210000000     0.555140000000     0.998130000000    -0.56675    
O124     O      0.604210000000     0.437860000000     0.995690000000    -0.572343   
O125     O      0.534900000000     0.456790000000     0.958020000000    -1.46544    
O126     O      0.535500000000     0.537200000000     0.037320000000    -1.37218    
O127     O      0.541450000000     0.455890000000     0.044530000000    -1.06617    
O128     O      0.541670000000     0.543110000000     0.955830000000    -1.0617     
S1       S      0.465480000000     0.423830000000     0.184110000000    -0.00976933 
S2       S      0.530350000000     0.812620000000     0.423440000000    -0.00788959 
S3       S      0.460580000000     0.680610000000     0.921860000000    -0.0106     
S4       S      0.482940000000     0.309300000000     0.923290000000    -0.0211033  
S5       S      0.564290000000     0.186660000000     0.477520000000    -0.0196892  
S6       S      0.924960000000     0.684480000000     0.466450000000    -0.0146576  
S7       S      0.065480000000     0.309600000000     0.527450000000    -0.00675755 
S8       S      0.425110000000     0.809880000000     0.526740000000    -0.00868798 
S9       S      0.924160000000     0.480950000000     0.307570000000    -0.0100566  
S10      S      0.073530000000     0.463750000000     0.316250000000    -0.0187822  
S11      S      0.066960000000     0.479870000000     0.687300000000    -0.0095411  
S12      S      0.679550000000     0.464240000000     0.920400000000    -0.0118067  
S13      S      0.810880000000     0.922110000000     0.029090000000    -0.0103197  
S14      S      0.921520000000     0.186150000000     0.028250000000    -0.00916246 
S15      S      0.069690000000     0.810900000000     0.973480000000    -0.01173    
S16      S      0.073580000000     0.178670000000     0.033520000000    -0.0158201  
S17      S      0.807810000000     0.976320000000     0.925220000000    -0.0118188  
S18      S      0.068270000000     0.029840000000     0.811240000000    -0.00435347 
S19      S      0.309050000000     0.021900000000     0.422600000000    -0.00841325 
S20      S      0.923810000000     0.986770000000     0.188910000000    -0.0124948  
S21      S      0.032480000000     0.183890000000     0.926190000000     0.000120204
S22      S      0.961760000000     0.926930000000     0.811610000000    -0.013232   
S23      S      0.034590000000     0.918540000000     0.179990000000    -0.00178736 
S24      S      0.010070000000     0.067800000000     0.188250000000    -0.0104634  


