data_structure

_audit_creation_method RASPA-1.0
_audit_creation_date 2023-5-19
_audit_author_name 'Poobodin Mano'

_cell_length_a    20.687
_cell_length_b    20.6672
_cell_length_c    20.6845
_cell_angle_alpha 90
_cell_angle_beta  90
_cell_angle_gamma 90
_cell_volume      8843.5

_symmetry_cell_setting          triclinic
_symmetry_space_group_name_Hall 'P 1'
_symmetry_space_group_name_H-M  'P 1'
_symmetry_Int_Tables_number     1

_symmetry_equiv_pos_as_xyz 'x,y,z'

loop_
_atom_site_label
_atom_site_type_symbol
_atom_site_fract_x
_atom_site_fract_y
_atom_site_fract_z
_atom_site_charge
C1       C      0.987980000000     0.152580000000     0.153540000000     0.499818   
C2       C      0.997860000000     0.841720000000     0.153580000000     0.510837   
C3       C      0.839780000000     0.999130000000     0.151840000000     0.507415   
C4       C      0.150530000000     0.990830000000     0.156060000000     0.508998   
C5       C      0.002190000000     0.842460000000     0.843910000000     0.502938   
C6       C      0.017020000000     0.154130000000     0.844560000000     0.51161    
C7       C      0.843410000000     0.842830000000     0.987470000000     0.496503   
C8       C      0.153860000000     0.843550000000     0.006100000000     0.508569   
C9       C      0.153500000000     0.153260000000     0.003900000000     0.502131   
C10      C      0.844330000000     0.154600000000     0.002390000000     0.508501   
C11      C      0.845830000000     0.003260000000     0.840570000000     0.504402   
C12      C      0.156330000000     0.003450000000     0.845790000000     0.509276   
C13      C      0.994250000000     0.343240000000     0.343230000000     0.504662   
C14      C      0.007630000000     0.652170000000     0.343330000000     0.508089   
C15      C      0.842560000000     0.498970000000     0.343570000000     0.511158   
C16      C      0.153540000000     0.494000000000     0.345120000000     0.503475   
C17      C      0.995330000000     0.652500000000     0.654530000000     0.496408   
C18      C      0.009190000000     0.341310000000     0.653370000000     0.507457   
C19      C      0.843910000000     0.654000000000     0.499030000000     0.4926     
C20      C      0.154280000000     0.652130000000     0.491890000000     0.507941   
C21      C      0.151930000000     0.342160000000     0.502390000000     0.501618   
C22      C      0.842050000000     0.342500000000     0.493430000000     0.505182   
C23      C      0.842970000000     0.499400000000     0.654110000000     0.496763   
C24      C      0.153920000000     0.490360000000     0.654230000000     0.507144   
C25      C      0.651270000000     0.997670000000     0.343150000000     0.500731   
C26      C      0.341580000000     0.004430000000     0.344430000000     0.502179   
C27      C      0.501050000000     0.845350000000     0.340680000000     0.513901   
C28      C      0.495390000000     0.153940000000     0.345080000000     0.507879   
C29      C      0.344580000000     0.990100000000     0.655700000000     0.501853   
C30      C      0.654970000000     0.002870000000     0.652400000000     0.506021   
C31      C      0.344150000000     0.841360000000     0.492270000000     0.500721   
C32      C      0.341800000000     0.153020000000     0.490230000000     0.511057   
C33      C      0.651590000000     0.153970000000     0.507370000000     0.509161   
C34      C      0.655080000000     0.844180000000     0.485380000000     0.512218   
C35      C      0.488660000000     0.840170000000     0.651370000000     0.500003   
C36      C      0.509890000000     0.151670000000     0.655910000000     0.509083   
C37      C      0.344310000000     0.342250000000     0.004820000000     0.501768   
C38      C      0.341240000000     0.652180000000     0.998900000000     0.513214   
C39      C      0.342110000000     0.490930000000     0.154220000000     0.505624   
C40      C      0.341990000000     0.493700000000     0.845240000000     0.506039   
C41      C      0.652900000000     0.653580000000     0.998320000000     0.492125   
C42      C      0.653360000000     0.342160000000     0.998700000000     0.513965   
C43      C      0.502950000000     0.654320000000     0.152630000000     0.498232   
C44      C      0.487270000000     0.651480000000     0.842190000000     0.504295   
C45      C      0.505090000000     0.342110000000     0.845080000000     0.50328    
C46      C      0.489100000000     0.343240000000     0.154990000000     0.507224   
C47      C      0.653680000000     0.501070000000     0.153360000000     0.497365   
C48      C      0.651750000000     0.496540000000     0.841970000000     0.512212   
C49      C      0.480930000000     0.311570000000     0.265670000000     0.0311792  
C50      C      0.500310000000     0.233110000000     0.185580000000    -0.00504306 
C51      C      0.484210000000     0.263640000000     0.313210000000     0.0359224  
C52      C      0.510870000000     0.186090000000     0.233290000000     0.145833   
C53      C      0.514920000000     0.687740000000     0.262090000000     0.0312501  
C54      C      0.488660000000     0.764440000000     0.182160000000    -0.00662166 
C55      C      0.513430000000     0.736210000000     0.308890000000     0.0360339  
C56      C      0.481430000000     0.812490000000     0.229590000000     0.150734   
C57      C      0.494790000000     0.761650000000     0.809510000000     0.0313899  
C58      C      0.470120000000     0.681750000000     0.732380000000    -0.00680872 
C59      C      0.494350000000     0.808600000000     0.761160000000     0.0376567  
C60      C      0.464700000000     0.729390000000     0.684050000000     0.148236   
C61      C      0.498960000000     0.309550000000     0.734800000000     0.0293951  
C62      C      0.524210000000     0.232570000000     0.814660000000    -0.00747859 
C63      C      0.501400000000     0.261400000000     0.687650000000     0.0357882  
C64      C      0.531820000000     0.184650000000     0.766880000000     0.149048   
C65      C      0.808710000000     0.232310000000     0.486630000000     0.0311332  
C66      C      0.732850000000     0.312800000000     0.513350000000    -0.00719173 
C67      C      0.760750000000     0.185180000000     0.492460000000     0.0343293  
C68      C      0.685570000000     0.265310000000     0.524510000000     0.150292   
C69      C      0.733550000000     0.686750000000     0.503400000000     0.0278987  
C70      C      0.813800000000     0.763020000000     0.477150000000    -0.00754779 
C71      C      0.686350000000     0.734620000000     0.497710000000     0.0376572  
C72      C      0.766150000000     0.810390000000     0.466340000000     0.151483   
C73      C      0.262490000000     0.310090000000     0.507330000000     0.0268996  
C74      C      0.182490000000     0.232910000000     0.482980000000    -0.00906126 
C75      C      0.309980000000     0.262450000000     0.501960000000     0.0379658  
C76      C      0.230320000000     0.185740000000     0.472510000000     0.149315   
C77      C      0.186300000000     0.762530000000     0.498800000000     0.0315703  
C78      C      0.263880000000     0.682710000000     0.475130000000    -0.00563818 
C79      C      0.234350000000     0.809730000000     0.497640000000     0.0347614  
C80      C      0.311800000000     0.730510000000     0.468950000000     0.147009   
C81      C      0.763580000000     0.489340000000     0.185750000000     0.0314162  
C82      C      0.684730000000     0.518010000000     0.262600000000    -0.00620748 
C83      C      0.810630000000     0.489340000000     0.234070000000     0.0392711  
C84      C      0.732590000000     0.523840000000     0.310390000000     0.150778   
C85      C      0.231570000000     0.496560000000     0.186420000000     0.0315669  
C86      C      0.311990000000     0.476870000000     0.264330000000    -0.0058209  
C87      C      0.184690000000     0.497280000000     0.234900000000     0.0324397  
C88      C      0.264470000000     0.471230000000     0.312620000000     0.144786   
C89      C      0.263840000000     0.500010000000     0.686910000000     0.0325904  
C90      C      0.184190000000     0.474210000000     0.763950000000    -0.00503884 
C91      C      0.310590000000     0.500520000000     0.735460000000     0.0357823  
C92      C      0.231710000000     0.469160000000     0.812260000000     0.145379   
C93      C      0.809860000000     0.487470000000     0.763760000000     0.0313355  
C94      C      0.733190000000     0.514790000000     0.684250000000    -0.00702948 
C95      C      0.761260000000     0.487230000000     0.810470000000     0.0383335  
C96      C      0.684890000000     0.519990000000     0.731690000000     0.151482   
C97      C      0.685160000000     0.764490000000     0.999960000000     0.0299303  
C98      C      0.762800000000     0.683490000000     0.981410000000    -0.00651412 
C99      C      0.733220000000     0.811720000000     0.994890000000     0.0358137  
C100     C      0.810620000000     0.730850000000     0.971350000000     0.147754   
C101     C      0.811720000000     0.264460000000     0.991300000000     0.0337937  
C102     C      0.734850000000     0.184810000000     0.018030000000    -0.00653691 
C103     C      0.763140000000     0.311170000000     0.990610000000     0.0376736  
C104     C      0.686740000000     0.232290000000     0.023200000000     0.151823   
C105     C      0.263640000000     0.810850000000     0.995710000000     0.0337753  
C106     C      0.183490000000     0.733270000000     0.018440000000    -0.00855123 
C107     C      0.310170000000     0.762160000000     0.993920000000     0.0371988  
C108     C      0.230730000000     0.684700000000     0.022370000000     0.152631   
C109     C      0.311720000000     0.231990000000     0.994890000000     0.0281938  
C110     C      0.234690000000     0.311570000000     0.020910000000    -0.00899544 
C111     C      0.263310000000     0.184900000000     0.995400000000     0.0342906  
C112     C      0.186700000000     0.263820000000     0.026980000000     0.140976   
C113     C      0.688280000000     0.991730000000     0.761920000000     0.028486   
C114     C      0.764320000000     0.021690000000     0.682760000000    -0.00474202 
C115     C      0.736680000000     0.992580000000     0.808700000000     0.0369851  
C116     C      0.812500000000     0.027480000000     0.730350000000     0.149356   
C117     C      0.266640000000     0.011200000000     0.813010000000     0.0331804  
C118     C      0.187000000000     0.980860000000     0.737580000000    -0.00482817 
C119     C      0.313820000000     0.005770000000     0.765000000000     0.038734   
C120     C      0.234620000000     0.969970000000     0.690560000000     0.150352   
C121     C      0.308000000000     0.010860000000     0.234330000000     0.0286392  
C122     C      0.231850000000     0.986320000000     0.315120000000    -0.0116067  
C123     C      0.259790000000     0.005370000000     0.187410000000     0.0360436  
C124     C      0.184180000000     0.975560000000     0.267870000000     0.147844   
C125     C      0.760740000000     0.010050000000     0.309680000000     0.026323   
C126     C      0.681190000000     0.983030000000     0.233060000000    -0.00967992 
C127     C      0.807480000000     0.009990000000     0.261090000000     0.0382847  
C128     C      0.728730000000     0.977150000000     0.184800000000     0.147297   
C129     C      0.008890000000     0.230780000000     0.685750000000     0.0342213  
C130     C      0.030570000000     0.311920000000     0.762540000000    -0.0064082  
C131     C      0.012620000000     0.184010000000     0.734140000000     0.0365374  
C132     C      0.039150000000     0.264720000000     0.810750000000     0.150633   
C133     C      0.986640000000     0.762840000000     0.686890000000     0.0314918  
C134     C      0.012430000000     0.683170000000     0.763970000000    -0.0055188  
C135     C      0.989990000000     0.810310000000     0.734730000000     0.035799   
C136     C      0.021410000000     0.731120000000     0.811280000000     0.147842   
C137     C      0.010110000000     0.762890000000     0.311400000000     0.0304356  
C138     C      0.996170000000     0.681740000000     0.232890000000    -0.00531829 
C139     C      0.004920000000     0.810080000000     0.263510000000     0.038235   
C140     C      0.985520000000     0.728920000000     0.185200000000     0.148943   
C141     C      0.980060000000     0.185160000000     0.264110000000     0.0279826  
C142     C      0.998040000000     0.263280000000     0.183500000000    -0.0110436  
C143     C      0.983140000000     0.233470000000     0.311340000000     0.0342245  
C144     C      0.008020000000     0.310960000000     0.230860000000     0.14607    
Eu1      Eu     0.994850000000     0.996980000000     0.113490000000     3.48274    
Eu2      Eu     0.998420000000     0.883610000000     0.998670000000     3.03592    
Eu3      Eu     0.997960000000     0.112840000000     0.997960000000     3.4523     
Eu4      Eu     0.883230000000     0.998740000000     0.996400000000     3.02854    
Eu5      Eu     0.113260000000     0.997670000000     0.000110000000     3.49465    
Eu6      Eu     0.000900000000     0.998600000000     0.883450000000     3.06971    
Eu7      Eu     0.997230000000     0.498460000000     0.384630000000     3.48102    
Eu8      Eu     0.999010000000     0.612850000000     0.499220000000     3.03876    
Eu9      Eu     0.996460000000     0.382510000000     0.499330000000     3.47163    
Eu10     Eu     0.883180000000     0.498030000000     0.499110000000     3.02625    
Eu11     Eu     0.112670000000     0.497970000000     0.500110000000     3.50314    
Eu12     Eu     0.998460000000     0.496820000000     0.614260000000     3.05018    
Eu13     Eu     0.496360000000     0.998770000000     0.384510000000     3.50723    
Eu14     Eu     0.382960000000     0.997610000000     0.499450000000     3.0448     
Eu15     Eu     0.612570000000     0.998010000000     0.499030000000     3.4883     
Eu16     Eu     0.499060000000     0.882770000000     0.497020000000     3.05633    
Eu17     Eu     0.496430000000     0.112990000000     0.500910000000     3.4742     
Eu18     Eu     0.498780000000     0.996410000000     0.614000000000     3.03668    
Eu19     Eu     0.383400000000     0.498320000000     0.000290000000     3.50674    
Eu20     Eu     0.497260000000     0.613000000000     0.998140000000     3.02166    
Eu21     Eu     0.499270000000     0.383150000000     0.000260000000     3.50171    
Eu22     Eu     0.498130000000     0.498460000000     0.114260000000     3.06729    
Eu23     Eu     0.497730000000     0.497600000000     0.884290000000     3.47539    
Eu24     Eu     0.613000000000     0.497800000000     0.998180000000     3.03205    
H1       H      0.937030000000     0.938730000000     0.103110000000    -0.198707   
H2       H      0.089490000000     0.091380000000     0.095830000000     0.410477   
H3       H      0.940800000000     0.105910000000     0.937040000000    -0.162318   
H4       H      0.106110000000     0.939270000000     0.941410000000    -0.187688   
H5       H      0.939960000000     0.558050000000     0.392980000000    -0.186762   
H6       H      0.090890000000     0.402730000000     0.405730000000     0.411821   
H7       H      0.938370000000     0.390330000000     0.559000000000    -0.176211   
H8       H      0.105220000000     0.556730000000     0.558990000000    -0.182242   
H9       H      0.438040000000     0.939840000000     0.391770000000    -0.185793   
H10      H      0.591100000000     0.093710000000     0.406140000000     0.414612   
H11      H      0.605500000000     0.937790000000     0.556490000000    -0.184298   
H12      H      0.437890000000     0.104490000000     0.560510000000    -0.171059   
H13      H      0.391770000000     0.556340000000     0.058960000000    -0.19964    
H14      H      0.404640000000     0.401790000000     0.906630000000     0.415249   
H15      H      0.556980000000     0.391640000000     0.059670000000    -0.188205   
H16      H      0.555410000000     0.557160000000     0.891680000000    -0.189416   
H17      H      0.474630000000     0.278190000000     0.362660000000     0.0313116  
H18      H      0.470790000000     0.360740000000     0.280910000000     0.0315886  
H19      H      0.508030000000     0.219300000000     0.135630000000     0.0396187  
H20      H      0.566030000000     0.100570000000     0.246580000000     0.0955544  
H21      H      0.548430000000     0.119860000000     0.165850000000     0.0807006  
H22      H      0.526040000000     0.722360000000     0.357860000000     0.0297807  
H23      H      0.527190000000     0.639090000000     0.277450000000     0.031305   
H24      H      0.476370000000     0.776800000000     0.132660000000     0.0459725  
H25      H      0.428750000000     0.899440000000     0.244590000000     0.104829   
H26      H      0.440500000000     0.877920000000     0.163400000000     0.0843261  
H27      H      0.506440000000     0.857560000000     0.775610000000     0.0323238  
H28      H      0.505990000000     0.777170000000     0.858320000000     0.0328852  
H29      H      0.458240000000     0.632170000000     0.719800000000     0.0432743  
H30      H      0.416180000000     0.745040000000     0.595170000000     0.113391   
H31      H      0.425430000000     0.663520000000     0.617340000000     0.0848853  
H32      H      0.489580000000     0.275740000000     0.638630000000     0.0266699  
H33      H      0.486800000000     0.358200000000     0.719380000000     0.030652   
H34      H      0.535740000000     0.220050000000     0.864290000000     0.0471267  
H35      H      0.571920000000     0.118590000000     0.832890000000     0.0863979  
H36      H      0.582690000000     0.097080000000     0.751380000000     0.111461   
H37      H      0.774420000000     0.135800000000     0.481190000000     0.027265   
H38      H      0.856850000000     0.216700000000     0.472940000000     0.0314631  
H39      H      0.720670000000     0.362670000000     0.524380000000     0.0467577  
H40      H      0.621510000000     0.332450000000     0.566060000000     0.0859714  
H41      H      0.601370000000     0.251160000000     0.580770000000     0.115243   
H42      H      0.637050000000     0.720610000000     0.508690000000     0.0306891  
H43      H      0.718010000000     0.638480000000     0.516830000000     0.0302644  
H44      H      0.863610000000     0.775300000000     0.466190000000     0.0455436  
H45      H      0.751490000000     0.895790000000     0.411600000000     0.113117   
H46      H      0.832850000000     0.875000000000     0.425000000000     0.084988   
H47      H      0.359310000000     0.276820000000     0.512330000000     0.0282988  
H48      H      0.277830000000     0.358670000000     0.519830000000     0.0308471  
H49      H      0.132670000000     0.220070000000     0.472690000000     0.0417404  
H50      H      0.244940000000     0.099800000000     0.418710000000     0.111462   
H51      H      0.163600000000     0.120020000000     0.432930000000     0.084088   
H52      H      0.219550000000     0.858900000000     0.508200000000     0.0269943  
H53      H      0.137360000000     0.777970000000     0.509460000000     0.0322215  
H54      H      0.276720000000     0.633100000000     0.463670000000     0.0470202  
H55      H      0.399570000000     0.746090000000     0.418350000000     0.111486   
H56      H      0.378510000000     0.664610000000     0.429700000000     0.0850201  
H57      H      0.859180000000     0.475280000000     0.220130000000     0.0337035  
H58      H      0.778370000000     0.476510000000     0.137120000000     0.0342093  
H59      H      0.635670000000     0.531940000000     0.274980000000     0.0450341  
H60      H      0.668300000000     0.568010000000     0.375580000000     0.084646   
H61      H      0.750070000000     0.576600000000     0.396580000000     0.109942   
H62      H      0.135460000000     0.507670000000     0.220220000000     0.0283138  
H63      H      0.215740000000     0.504740000000     0.137170000000     0.0260446  
H64      H      0.361750000000     0.466370000000     0.277250000000     0.0441015  
H65      H      0.330990000000     0.433750000000     0.379690000000     0.0824069  
H66      H      0.249820000000     0.421980000000     0.401380000000     0.095339   
H67      H      0.359350000000     0.513600000000     0.721330000000     0.0305092  
H68      H      0.279130000000     0.511540000000     0.638110000000     0.0310834  
H69      H      0.134850000000     0.461360000000     0.776350000000     0.0432752  
H70      H      0.247890000000     0.419430000000     0.900550000000     0.0945365  
H71      H      0.166420000000     0.428070000000     0.878420000000     0.0805095  
H72      H      0.775090000000     0.473700000000     0.859210000000     0.0310065  
H73      H      0.858540000000     0.475380000000     0.779010000000     0.0331101  
H74      H      0.720870000000     0.528120000000     0.635020000000     0.0453193  
H75      H      0.619210000000     0.561950000000     0.666450000000     0.0842893  
H76      H      0.597000000000     0.570600000000     0.747880000000     0.105356   
H77      H      0.718490000000     0.861490000000     0.002170000000     0.0270026  
H78      H      0.636190000000     0.780430000000     0.009760000000     0.0330599  
H79      H      0.775850000000     0.633280000000     0.973300000000     0.0458621  
H80      H      0.898480000000     0.743130000000     0.920060000000     0.113117   
H81      H      0.877360000000     0.662460000000     0.936630000000     0.085451   
H82      H      0.776940000000     0.359950000000     0.977090000000     0.0315139  
H83      H      0.860470000000     0.279660000000     0.979450000000     0.0329276  
H84      H      0.722520000000     0.135540000000     0.031400000000     0.0467386  
H85      H      0.599970000000     0.249350000000     0.074620000000     0.103458   
H86      H      0.621120000000     0.167450000000     0.065970000000     0.0816061  
H87      H      0.359110000000     0.776460000000     0.981690000000     0.0320735  
H88      H      0.279190000000     0.859980000000     0.985860000000     0.0323833  
H89      H      0.133990000000     0.720580000000     0.030390000000     0.045638   
H90      H      0.164810000000     0.617580000000     0.060910000000     0.0836597  
H91      H      0.246180000000     0.595490000000     0.070370000000     0.105553   
H92      H      0.277370000000     0.136000000000     0.982600000000     0.030974   
H93      H      0.360470000000     0.216780000000     0.983060000000     0.0297795  
H94      H      0.222080000000     0.360990000000     0.033420000000     0.0426946  
H95      H      0.120750000000     0.329160000000     0.068390000000     0.0789017  
H96      H      0.100020000000     0.247290000000     0.078520000000     0.0927084  
H97      H      0.722940000000     0.978370000000     0.857270000000     0.0320386  
H98      H      0.639940000000     0.978230000000     0.777080000000     0.0301343  
H99      H      0.776320000000     0.035670000000     0.633620000000     0.0472425  
H100     H      0.899630000000     0.078750000000     0.747380000000     0.106271   
H101     H      0.877630000000     0.071130000000     0.665690000000     0.0845954  
H102     H      0.362900000000     0.018620000000     0.778180000000     0.0334233  
H103     H      0.281730000000     0.026210000000     0.860920000000     0.0318861  
H104     H      0.137560000000     0.968060000000     0.725560000000     0.0468744  
H105     H      0.169140000000     0.924260000000     0.627610000000     0.0852054  
H106     H      0.251010000000     0.912530000000     0.607530000000     0.10663    
H107     H      0.273660000000     0.015820000000     0.137950000000     0.0290559  
H108     H      0.356350000000     0.023440000000     0.218470000000     0.0328454  
H109     H      0.219500000000     0.976160000000     0.365090000000     0.0435916  
H110     H      0.099150000000     0.920800000000     0.254420000000     0.110672   
H111     H      0.119390000000     0.936180000000     0.335570000000     0.0830355  
H112     H      0.856190000000     0.023390000000     0.275100000000     0.031289   
H113     H      0.776040000000     0.022200000000     0.358340000000     0.0265953  
H114     H      0.631850000000     0.970070000000     0.220760000000     0.0453822  
H115     H      0.744500000000     0.925140000000     0.097870000000     0.106259   
H116     H      0.663110000000     0.935590000000     0.119270000000     0.0837033  
H117     H      0.003470000000     0.134410000000     0.719800000000     0.0290884  
H118     H      0.998050000000     0.214690000000     0.637050000000     0.031098   
H119     H      0.040520000000     0.361990000000     0.774870000000     0.0442796  
H120     H      0.089650000000     0.250820000000     0.898710000000     0.116118   
H121     H      0.077230000000     0.332080000000     0.876660000000     0.0823062  
H122     H      0.978240000000     0.859440000000     0.720570000000     0.0327211  
H123     H      0.974040000000     0.777960000000     0.638290000000     0.0338141  
H124     H      0.023930000000     0.633540000000     0.776700000000     0.0454014  
H125     H      0.075490000000     0.746430000000     0.897120000000     0.110338   
H126     H      0.062310000000     0.665000000000     0.876800000000     0.0856547  
H127     H      0.009130000000     0.859950000000     0.278910000000     0.0262082  
H128     H      0.017610000000     0.778900000000     0.360760000000     0.0321064  
H129     H      0.989850000000     0.631390000000     0.219410000000     0.0439959  
H130     H      0.933110000000     0.739310000000     0.097550000000     0.110256   
H131     H      0.953930000000     0.659610000000     0.117830000000     0.0843427  
H132     H      0.974190000000     0.218930000000     0.360910000000     0.0300414  
H133     H      0.970700000000     0.135990000000     0.279820000000     0.030809   
H134     H      0.004860000000     0.276970000000     0.133390000000     0.0405506  
H135     H      0.061350000000     0.397870000000     0.242660000000     0.0956099  
H136     H      0.043020000000     0.377540000000     0.162430000000     0.0793226  
N1       N      0.488660000000     0.296170000000     0.201830000000    -0.191486   
N2       N      0.497770000000     0.200550000000     0.297430000000    -0.217679   
N3       N      0.540810000000     0.130310000000     0.214710000000    -0.211709   
N4       N      0.503190000000     0.702020000000     0.198700000000    -0.188362   
N5       N      0.498190000000     0.798910000000     0.293030000000    -0.216428   
N6       N      0.451060000000     0.868340000000     0.211890000000    -0.213375   
N7       N      0.484310000000     0.698030000000     0.794910000000    -0.190776   
N8       N      0.481780000000     0.792770000000     0.697910000000    -0.212315   
N9       N      0.436380000000     0.711920000000     0.627180000000    -0.214489   
N10      N      0.508780000000     0.294890000000     0.798480000000    -0.192407   
N11      N      0.515470000000     0.198370000000     0.703340000000    -0.215959   
N12      N      0.561370000000     0.128420000000     0.784450000000    -0.214407   
N13      N      0.794570000000     0.296170000000     0.496290000000    -0.18992    
N14      N      0.698600000000     0.201310000000     0.509440000000    -0.217881   
N15      N      0.631020000000     0.283700000000     0.556500000000    -0.21519    
N16      N      0.797390000000     0.701220000000     0.494470000000    -0.187695   
N17      N      0.702330000000     0.797130000000     0.481690000000    -0.215315   
N18      N      0.784210000000     0.865410000000     0.434850000000    -0.214347   
N19      N      0.198670000000     0.295100000000     0.498930000000    -0.193632   
N20      N      0.294240000000     0.199700000000     0.486880000000    -0.215427   
N21      N      0.212270000000     0.130140000000     0.442030000000    -0.214429   
N22      N      0.201310000000     0.698860000000     0.489120000000    -0.190541   
N23      N      0.297670000000     0.793960000000     0.485620000000    -0.214065   
N24      N      0.368400000000     0.713080000000     0.440030000000    -0.214462   
N25      N      0.700450000000     0.502240000000     0.200350000000    -0.187981   
N26      N      0.795330000000     0.504490000000     0.296860000000    -0.214695   
N27      N      0.716280000000     0.555350000000     0.365960000000    -0.213798   
N28      N      0.295450000000     0.488560000000     0.201400000000    -0.191272   
N29      N      0.200830000000     0.487050000000     0.298480000000    -0.217548   
N30      N      0.282420000000     0.443510000000     0.369670000000    -0.212498   
N31      N      0.200440000000     0.488500000000     0.701450000000    -0.190806   
N32      N      0.294780000000     0.487310000000     0.798580000000    -0.217255   
N33      N      0.214620000000     0.439790000000     0.868760000000    -0.212148   
N34      N      0.795580000000     0.500040000000     0.700510000000    -0.187844   
N35      N      0.698400000000     0.501560000000     0.794690000000    -0.215089   
N36      N      0.628690000000     0.550000000000     0.714650000000    -0.213324   
N37      N      0.700120000000     0.700290000000     0.994480000000    -0.186567   
N38      N      0.796550000000     0.795330000000     0.983330000000    -0.212724   
N39      N      0.867180000000     0.711510000000     0.943620000000    -0.21455    
N40      N      0.797220000000     0.201130000000     0.003520000000    -0.190378   
N41      N      0.700230000000     0.295230000000     0.004470000000    -0.215431   
N42      N      0.630800000000     0.215560000000     0.053700000000    -0.213619   
N43      N      0.200170000000     0.796160000000     0.006580000000    -0.191187   
N44      N      0.294010000000     0.698740000000     0.005260000000    -0.214959   
N45      N      0.213170000000     0.627500000000     0.050030000000    -0.213646   
N46      N      0.297160000000     0.295490000000     0.006360000000    -0.194053   
N47      N      0.200320000000     0.200550000000     0.009380000000    -0.217941   
N48      N      0.130660000000     0.280880000000     0.057030000000    -0.213116   
N49      N      0.702330000000     0.004990000000     0.698780000000    -0.190719   
N50      N      0.799270000000     0.008350000000     0.793170000000    -0.212772   
N51      N      0.868250000000     0.058430000000     0.713710000000    -0.213497   
N52      N      0.203130000000     0.999950000000     0.798910000000    -0.191523   
N53      N      0.297910000000     0.987420000000     0.703150000000    -0.213351   
N54      N      0.217450000000     0.935940000000     0.636820000000    -0.213428   
N55      N      0.293910000000     0.001990000000     0.298240000000    -0.190353   
N56      N      0.197350000000     0.989430000000     0.203700000000    -0.218655   
N57      N      0.129070000000     0.944950000000     0.286740000000    -0.215487   
N58      N      0.697480000000     0.997510000000     0.295510000000    -0.19498    
N59      N      0.791950000000     0.995070000000     0.198240000000    -0.214804   
N60      N      0.711430000000     0.946930000000     0.128850000000    -0.213867   
N61      N      0.015600000000     0.294880000000     0.700360000000    -0.190463   
N62      N      0.024260000000     0.200780000000     0.797350000000    -0.215291   
N63      N      0.067860000000     0.283310000000     0.867050000000    -0.214465   
N64      N      0.996950000000     0.699200000000     0.701700000000    -0.188442   
N65      N      0.005450000000     0.794790000000     0.797380000000    -0.213182   
N66      N      0.052350000000     0.713570000000     0.866790000000    -0.214061   
N67      N      0.006390000000     0.698720000000     0.296010000000    -0.190042   
N68      N      0.995330000000     0.793670000000     0.199890000000    -0.215748   
N69      N      0.958770000000     0.708850000000     0.128360000000    -0.213155   
N70      N      0.987420000000     0.200080000000     0.200130000000    -0.192948   
N71      N      0.995930000000     0.296720000000     0.295270000000    -0.217574   
N72      N      0.036330000000     0.367310000000     0.211480000000    -0.212601   
O1       O      0.991410000000     0.171300000000     0.091100000000    -0.625474   
O2       O      0.001190000000     0.824210000000     0.091050000000    -0.574872   
O3       O      0.901840000000     0.001330000000     0.172050000000    -0.607397   
O4       O      0.087760000000     0.994540000000     0.173720000000    -0.629637   
O5       O      0.170470000000     0.991890000000     0.093950000000    -0.628893   
O6       O      0.822640000000     0.000690000000     0.088940000000    -0.567731   
O7       O      0.998100000000     0.904100000000     0.173260000000    -0.611751   
O8       O      0.987900000000     0.090130000000     0.172820000000    -0.622694   
O9       O      0.061140000000     0.935110000000     0.063950000000    -1.45888    
O10      O      0.933940000000     0.062180000000     0.061380000000    -1.45575    
O11      O      0.923240000000     0.924650000000     0.062640000000    -1.0487     
O12      O      0.063000000000     0.064070000000     0.066760000000    -1.63192    
O13      O      0.998620000000     0.824320000000     0.906300000000    -0.575486   
O14      O      0.011260000000     0.173050000000     0.906690000000    -0.606567   
O15      O      0.824240000000     0.905390000000     0.988380000000    -0.563666   
O16      O      0.173400000000     0.905830000000     0.005470000000    -0.612081   
O17      O      0.172700000000     0.090810000000     0.002630000000    -0.628589   
O18      O      0.825370000000     0.092160000000     0.001800000000    -0.57014    
O19      O      0.908500000000     0.999330000000     0.822830000000    -0.571016   
O20      O      0.094300000000     0.999560000000     0.826400000000    -0.578315   
O21      O      0.825820000000     0.001990000000     0.902680000000    -0.565112   
O22      O      0.174760000000     0.006960000000     0.908440000000    -0.601989   
O23      O      0.905590000000     0.824470000000     0.994060000000    -0.567103   
O24      O      0.906640000000     0.173840000000     0.001170000000    -0.609599   
O25      O      0.091160000000     0.171680000000     0.999490000000    -0.627896   
O26      O      0.091370000000     0.824960000000     0.004760000000    -0.572467   
O27      O      0.001560000000     0.904930000000     0.824460000000    -0.562361   
O28      O      0.012270000000     0.091820000000     0.825530000000    -0.576079   
O29      O      0.063910000000     0.062230000000     0.936780000000    -1.46566    
O30      O      0.936240000000     0.935360000000     0.933700000000    -1.36696    
O31      O      0.927050000000     0.064880000000     0.923820000000    -1.07222    
O32      O      0.065860000000     0.925200000000     0.926700000000    -1.05928    
O33      O      0.995160000000     0.323590000000     0.405570000000    -0.622509   
O34      O      0.005510000000     0.671450000000     0.405680000000    -0.565242   
O35      O      0.904950000000     0.496590000000     0.324260000000    -0.604643   
O36      O      0.091080000000     0.495870000000     0.325840000000    -0.625251   
O37      O      0.171890000000     0.498640000000     0.407400000000    -0.628785   
O38      O      0.824290000000     0.496230000000     0.406020000000    -0.572423   
O39      O      0.007230000000     0.589660000000     0.324600000000    -0.613984   
O40      O      0.990760000000     0.405840000000     0.325550000000    -0.62844    
O41      O      0.062530000000     0.560610000000     0.435190000000    -1.46014    
O42      O      0.934050000000     0.433770000000     0.434770000000    -1.45466    
O43      O      0.925480000000     0.571560000000     0.433480000000    -1.05689    
O44      O      0.063730000000     0.431090000000     0.433110000000    -1.6419     
O45      O      0.994330000000     0.671890000000     0.592210000000    -0.563344   
O46      O      0.005760000000     0.322050000000     0.591050000000    -0.60645    
O47      O      0.824490000000     0.591650000000     0.501780000000    -0.5616     
O48      O      0.172850000000     0.589540000000     0.490040000000    -0.610149   
O49      O      0.171210000000     0.404520000000     0.504460000000    -0.628461   
O50      O      0.823900000000     0.405120000000     0.496950000000    -0.569025   
O51      O      0.905270000000     0.496390000000     0.673460000000    -0.56418    
O52      O      0.091470000000     0.491480000000     0.673010000000    -0.570066   
O53      O      0.824250000000     0.501290000000     0.591670000000    -0.565159   
O54      O      0.173190000000     0.492080000000     0.591890000000    -0.611609   
O55      O      0.906460000000     0.672530000000     0.497460000000    -0.562431   
O56      O      0.904240000000     0.322810000000     0.490870000000    -0.610141   
O57      O      0.089450000000     0.323360000000     0.500520000000    -0.62365    
O58      O      0.092220000000     0.671440000000     0.497040000000    -0.572935   
O59      O      0.997460000000     0.589920000000     0.673260000000    -0.565751   
O60      O      0.006500000000     0.403670000000     0.672390000000    -0.570738   
O61      O      0.061550000000     0.432990000000     0.561710000000    -1.46588    
O62      O      0.935450000000     0.560970000000     0.562750000000    -1.36332    
O63      O      0.924600000000     0.431280000000     0.572410000000    -1.05913    
O64      O      0.064530000000     0.570560000000     0.572840000000    -1.05933    
O65      O      0.671000000000     0.999530000000     0.405350000000    -0.63194    
O66      O      0.323530000000     0.000460000000     0.406950000000    -0.574386   
O67      O      0.504390000000     0.908020000000     0.323110000000    -0.615498   
O68      O      0.491870000000     0.091660000000     0.326650000000    -0.63606    
O69      O      0.495770000000     0.173050000000     0.407640000000    -0.618476   
O70      O      0.500510000000     0.825450000000     0.402830000000    -0.576833   
O71      O      0.403830000000     0.007150000000     0.324800000000    -0.605219   
O72      O      0.588710000000     0.996140000000     0.324840000000    -0.631329   
O73      O      0.433920000000     0.062690000000     0.436160000000    -1.46725    
O74      O      0.562070000000     0.936050000000     0.433680000000    -1.46842    
O75      O      0.424990000000     0.925400000000     0.432490000000    -1.06543    
O76      O      0.563430000000     0.065560000000     0.433240000000    -1.64151    
O77      O      0.325360000000     0.993400000000     0.593420000000    -0.568164   
O78      O      0.673290000000     0.006250000000     0.589940000000    -0.612077   
O79      O      0.406580000000     0.823260000000     0.495930000000    -0.572524   
O80      O      0.404140000000     0.172570000000     0.491430000000    -0.61236    
O81      O      0.589180000000     0.172420000000     0.504050000000    -0.627645   
O82      O      0.592830000000     0.824830000000     0.489350000000    -0.573475   
O83      O      0.491580000000     0.902390000000     0.671240000000    -0.561571   
O84      O      0.504520000000     0.089180000000     0.673900000000    -0.571046   
O85      O      0.494690000000     0.822140000000     0.589020000000    -0.569113   
O86      O      0.506690000000     0.171440000000     0.593710000000    -0.615843   
O87      O      0.324600000000     0.903740000000     0.495280000000    -0.563669   
O88      O      0.673400000000     0.906710000000     0.489070000000    -0.613135   
O89      O      0.670910000000     0.091570000000     0.505090000000    -0.62267    
O90      O      0.323700000000     0.090620000000     0.495920000000    -0.572964   
O91      O      0.407000000000     0.992820000000     0.674360000000    -0.565628   
O92      O      0.592940000000     0.996780000000     0.671820000000    -0.576723   
O93      O      0.561400000000     0.061360000000     0.562370000000    -1.46767    
O94      O      0.435570000000     0.933470000000     0.561310000000    -1.37205    
O95      O      0.565140000000     0.923580000000     0.570970000000    -1.0528     
O96      O      0.424690000000     0.063170000000     0.573590000000    -1.05744    
O97      O      0.406640000000     0.323140000000     0.001720000000    -0.627661   
O98      O      0.403610000000     0.671490000000     0.999480000000    -0.569179   
O99      O      0.322890000000     0.491410000000     0.091880000000    -0.613774   
O100     O      0.323760000000     0.498500000000     0.907610000000    -0.628139   
O101     O      0.404290000000     0.495050000000     0.825740000000    -0.62595    
O102     O      0.404610000000     0.493670000000     0.172970000000    -0.569461   
O103     O      0.323090000000     0.589870000000     0.993010000000    -0.614756   
O104     O      0.325360000000     0.404750000000     0.006010000000    -0.628944   
O105     O      0.433070000000     0.560730000000     0.934610000000    -1.45585    
O106     O      0.434780000000     0.434140000000     0.062600000000    -1.47254    
O107     O      0.432030000000     0.571410000000     0.072490000000    -1.05057    
O108     O      0.431640000000     0.430610000000     0.933700000000    -1.65059    
O109     O      0.590420000000     0.672700000000     0.999240000000    -0.555191   
O110     O      0.591150000000     0.323440000000     0.994340000000    -0.617036   
O111     O      0.502820000000     0.592080000000     0.172530000000    -0.566242   
O112     O      0.486080000000     0.588810000000     0.823780000000    -0.61199    
O113     O      0.501650000000     0.404330000000     0.825590000000    -0.623201   
O114     O      0.491790000000     0.405670000000     0.173930000000    -0.57044    
O115     O      0.672680000000     0.499310000000     0.090930000000    -0.559771   
O116     O      0.671170000000     0.496800000000     0.904320000000    -0.570559   
O117     O      0.591320000000     0.501290000000     0.172570000000    -0.56824    
O118     O      0.589350000000     0.491870000000     0.823800000000    -0.611017   
O119     O      0.500580000000     0.672660000000     0.090130000000    -0.565347   
O120     O      0.490160000000     0.324110000000     0.092560000000    -0.614482   
O121     O      0.505200000000     0.323510000000     0.907640000000    -0.62446    
O122     O      0.492310000000     0.671010000000     0.904270000000    -0.568956   
O123     O      0.671750000000     0.591030000000     0.998270000000    -0.561291   
O124     O      0.672280000000     0.404670000000     0.998130000000    -0.572975   
O125     O      0.561410000000     0.433480000000     0.934700000000    -1.4585     
O126     O      0.561280000000     0.561480000000     0.061370000000    -1.36455    
O127     O      0.571460000000     0.432410000000     0.072610000000    -1.05758    
O128     O      0.570190000000     0.570930000000     0.932040000000    -1.04953    


