data_structure

_audit_creation_method RASPA-1.0
_audit_creation_date 2023-5-19
_audit_author_name 'Poobodin Mano'

_cell_length_a    32.8762
_cell_length_b    32.8759
_cell_length_c    32.8643
_cell_angle_alpha 90
_cell_angle_beta  90
_cell_angle_gamma 90
_cell_volume      35520.9

_symmetry_cell_setting          triclinic
_symmetry_space_group_name_Hall 'P 1'
_symmetry_space_group_name_H-M  'P 1'
_symmetry_Int_Tables_number     1

_symmetry_equiv_pos_as_xyz 'x,y,z'

loop_
_atom_site_label
_atom_site_type_symbol
_atom_site_fract_x
_atom_site_fract_y
_atom_site_fract_z
_atom_site_charge
C1       C      0.993130000000     0.094850000000     0.096200000000     0.527818   
C2       C      0.003570000000     0.900140000000     0.095650000000     0.532391   
C3       C      0.899490000000     0.002580000000     0.095890000000     0.509285   
C4       C      0.094210000000     0.995010000000     0.096080000000     0.529424   
C5       C      0.995480000000     0.901140000000     0.900020000000     0.497936   
C6       C      0.004080000000     0.096560000000     0.901170000000     0.532444   
C7       C      0.900130000000     0.900050000000     0.994880000000     0.520688   
C8       C      0.095530000000     0.900930000000     0.004430000000     0.51024    
C9       C      0.094660000000     0.095610000000     0.995310000000     0.506006   
C10      C      0.899960000000     0.096100000000     0.004630000000     0.509692   
C11      C      0.900270000000     0.997200000000     0.899930000000     0.522098   
C12      C      0.095710000000     0.003990000000     0.901030000000     0.509515   
C13      C      0.993660000000     0.400660000000     0.400670000000     0.506849   
C14      C      0.003390000000     0.595300000000     0.400080000000     0.511298   
C15      C      0.899740000000     0.491370000000     0.400240000000     0.534257   
C16      C      0.094770000000     0.501870000000     0.400820000000     0.532194   
C17      C      0.994840000000     0.595470000000     0.595900000000     0.522433   
C18      C      0.004000000000     0.400050000000     0.595630000000     0.510794   
C19      C      0.899530000000     0.595350000000     0.499640000000     0.500869   
C20      C      0.095210000000     0.595630000000     0.492730000000     0.535071   
C21      C      0.095040000000     0.400860000000     0.500660000000     0.531681   
C22      C      0.899840000000     0.399790000000     0.493050000000     0.534381   
C23      C      0.899960000000     0.500130000000     0.595950000000     0.50134    
C24      C      0.095370000000     0.491840000000     0.595460000000     0.513437   
C25      C      0.594990000000     0.995190000000     0.400960000000     0.530507   
C26      C      0.400110000000     0.002750000000     0.399770000000     0.509754   
C27      C      0.503150000000     0.900570000000     0.400150000000     0.512874   
C28      C      0.493900000000     0.094920000000     0.399990000000     0.532088   
C29      C      0.399920000000     0.996500000000     0.595890000000     0.5214     
C30      C      0.595290000000     0.004360000000     0.595550000000     0.509978   
C31      C      0.400230000000     0.900040000000     0.499840000000     0.500553   
C32      C      0.399520000000     0.095790000000     0.492210000000     0.511729   
C33      C      0.594490000000     0.095660000000     0.500620000000     0.508718   
C34      C      0.596050000000     0.901240000000     0.492930000000     0.534903   
C35      C      0.495700000000     0.900750000000     0.595890000000     0.500958   
C36      C      0.502120000000     0.096760000000     0.594900000000     0.512242   
C37      C      0.398920000000     0.401420000000     0.994250000000     0.530136   
C38      C      0.593670000000     0.399020000000     0.004510000000     0.534024   
C39      C      0.491580000000     0.400010000000     0.900750000000     0.537318   
C40      C      0.499320000000     0.400320000000     0.095490000000     0.508977   
C41      C      0.595210000000     0.595030000000     0.996240000000     0.499414   
C42      C      0.399810000000     0.596100000000     0.005000000000     0.534518   
C43      C      0.594670000000     0.500040000000     0.900510000000     0.524462   
C44      C      0.594540000000     0.490630000000     0.096280000000     0.512476   
C45      C      0.399570000000     0.501970000000     0.095480000000     0.50962    
C46      C      0.399300000000     0.492480000000     0.900650000000     0.536097   
C47      C      0.499470000000     0.596130000000     0.901300000000     0.52496    
C48      C      0.492720000000     0.594820000000     0.097120000000     0.536771   
C49      C      0.493070000000     0.144280000000     0.299350000000    -0.228954   
C50      C      0.500210000000     0.381270000000     0.165500000000     0.087767   
C51      C      0.499520000000     0.330280000000     0.114530000000     0.0887066  
C52      C      0.499800000000     0.351660000000     0.195950000000    -0.101286   
C53      C      0.473770000000     0.283440000000     0.252490000000    -0.0395724  
C54      C      0.472590000000     0.253350000000     0.282520000000    -0.0231708  
C55      C      0.498020000000     0.278460000000     0.217580000000    -0.00309025 
C56      C      0.499140000000     0.299880000000     0.144220000000    -0.0976048  
C57      C      0.495600000000     0.217560000000     0.278340000000    -0.0298895  
C58      C      0.494280000000     0.195480000000     0.351480000000    -0.138291   
C59      C      0.519920000000     0.212630000000     0.243480000000    -0.0225949  
C60      C      0.493750000000     0.164800000000     0.380870000000     0.107419   
C61      C      0.492490000000     0.114220000000     0.329390000000     0.421558   
C62      C      0.521110000000     0.242710000000     0.213470000000    -0.0388753  
C63      C      0.499070000000     0.310370000000     0.185530000000     0.0543039  
C64      C      0.494240000000     0.185410000000     0.310130000000     0.113372   
C65      C      0.490900000000     0.644550000000     0.197460000000    -0.228035   
C66      C      0.506030000000     0.881520000000     0.330220000000     0.091104   
C67      C      0.503500000000     0.830570000000     0.381210000000     0.0899899  
C68      C      0.505460000000     0.851900000000     0.299810000000    -0.102482   
C69      C      0.477150000000     0.784480000000     0.243520000000    -0.0377951  
C70      C      0.474690000000     0.754280000000     0.213730000000    -0.0235051  
C71      C      0.501390000000     0.778800000000     0.278320000000    -0.00449268 
C72      C      0.502900000000     0.800190000000     0.351560000000    -0.102622   
C73      C      0.496360000000     0.717700000000     0.218090000000    -0.028126   
C74      C      0.494650000000     0.695460000000     0.145140000000    -0.132403   
C75      C      0.520700000000     0.712070000000     0.252810000000    -0.0233378  
C76      C      0.493540000000     0.664710000000     0.115900000000     0.112549   
C77      C      0.489750000000     0.614400000000     0.167540000000     0.426477   
C78      C      0.523190000000     0.742280000000     0.282580000000    -0.0377526  
C79      C      0.503480000000     0.810670000000     0.310270000000     0.05656    
C80      C      0.493800000000     0.685540000000     0.186490000000     0.11445    
C81      C      0.500280000000     0.696720000000     0.851880000000    -0.224426   
C82      C      0.494980000000     0.830740000000     0.614890000000     0.0892376  
C83      C      0.495240000000     0.881650000000     0.665950000000     0.089942   
C84      C      0.495220000000     0.800280000000     0.644490000000    -0.101243   
C85      C      0.520530000000     0.743580000000     0.712850000000    -0.0376718  
C86      C      0.521390000000     0.713510000000     0.742910000000    -0.0234278  
C87      C      0.496380000000     0.778560000000     0.717710000000    -0.00353849 
C88      C      0.495470000000     0.851930000000     0.696330000000    -0.0981616  
C89      C      0.498140000000     0.717720000000     0.778560000000    -0.0267847  
C90      C      0.499120000000     0.644600000000     0.800670000000    -0.129612   
C91      C      0.473910000000     0.752640000000     0.783370000000    -0.0228639  
C92      C      0.499530000000     0.615230000000     0.831380000000     0.112569   
C93      C      0.500740000000     0.666700000000     0.881960000000     0.426615   
C94      C      0.473040000000     0.782690000000     0.753310000000    -0.0375302  
C95      C      0.495630000000     0.810640000000     0.685810000000     0.055501   
C96      C      0.499240000000     0.685940000000     0.810730000000     0.113778   
C97      C      0.489330000000     0.299940000000     0.850520000000    -0.225643   
C98      C      0.504620000000     0.166800000000     0.613620000000     0.0914858  
C99      C      0.502080000000     0.116090000000     0.664820000000     0.0907453  
C100     C      0.503960000000     0.197360000000     0.643110000000    -0.102839   
C101     C      0.475980000000     0.254130000000     0.710410000000    -0.0369711  
C102     C      0.473560000000     0.283970000000     0.740600000000    -0.0232265  
C103     C      0.500010000000     0.219210000000     0.716200000000    -0.00385698 
C104     C      0.501370000000     0.145880000000     0.695080000000    -0.0995689  
C105     C      0.495050000000     0.279530000000     0.777290000000    -0.0267215  
C106     C      0.493360000000     0.352430000000     0.799820000000    -0.12996    
C107     C      0.519240000000     0.244720000000     0.782990000000    -0.0228615  
C108     C      0.492290000000     0.381550000000     0.830720000000     0.114944   
C109     C      0.488210000000     0.329730000000     0.880800000000     0.429631   
C110     C      0.521700000000     0.214930000000     0.752800000000    -0.0368862  
C111     C      0.501980000000     0.187110000000     0.684420000000     0.0566677  
C112     C      0.492400000000     0.311050000000     0.809560000000     0.115005   
C113     C      0.799390000000     0.350260000000     0.491010000000    -0.225846   
C114     C      0.664560000000     0.114360000000     0.500800000000     0.0889901  
C115     C      0.613870000000     0.165620000000     0.500280000000     0.0876229  
C116     C      0.695140000000     0.143780000000     0.499710000000    -0.099026   
C117     C      0.752950000000     0.212960000000     0.519750000000    -0.0382887  
C118     C      0.783260000000     0.242700000000     0.517770000000    -0.0230102  
C119     C      0.717170000000     0.216770000000     0.496610000000    -0.00345307 
C120     C      0.643720000000     0.195840000000     0.499140000000    -0.10236    
C121     C      0.778490000000     0.276970000000     0.492630000000    -0.0286506  
C122     C      0.851600000000     0.299140000000     0.491060000000    -0.137594   
C123     C      0.742800000000     0.280680000000     0.469340000000    -0.0228966  
C124     C      0.880920000000     0.329890000000     0.490990000000     0.111142   
C125     C      0.829350000000     0.380370000000     0.491020000000     0.426683   
C126     C      0.712500000000     0.250940000000     0.471320000000    -0.0378223  
C127     C      0.684950000000     0.185110000000     0.498620000000     0.0552446  
C128     C      0.810240000000     0.309140000000     0.491350000000     0.114421   
C129     C      0.696430000000     0.851590000000     0.490030000000    -0.226344   
C130     C      0.829490000000     0.614280000000     0.500000000000     0.0902043  
C131     C      0.880410000000     0.665310000000     0.499190000000     0.0890565  
C132     C      0.799040000000     0.643890000000     0.499180000000    -0.0977101  
C133     C      0.742650000000     0.712030000000     0.472460000000    -0.0386862  
C134     C      0.712800000000     0.742270000000     0.470860000000    -0.0223209  
C135     C      0.777510000000     0.717130000000     0.496750000000    -0.00266374 
C136     C      0.850740000000     0.695680000000     0.498350000000    -0.100013   
C137     C      0.717160000000     0.778310000000     0.493450000000    -0.0289221  
C138     C      0.644180000000     0.800570000000     0.492540000000    -0.137154   
C139     C      0.751940000000     0.783340000000     0.517820000000    -0.0222864  
C140     C      0.614920000000     0.831340000000     0.492300000000     0.110456   
C141     C      0.666500000000     0.881750000000     0.489710000000     0.427078   
C142     C      0.781750000000     0.753110000000     0.519470000000    -0.0381931  
C143     C      0.809460000000     0.685180000000     0.498180000000     0.0553839  
C144     C      0.685520000000     0.810520000000     0.491830000000     0.114847   
C145     C      0.195450000000     0.351140000000     0.499370000000    -0.226757   
C146     C      0.329400000000     0.114300000000     0.490810000000     0.0895584  
C147     C      0.380000000000     0.165630000000     0.489640000000     0.090987   
C148     C      0.298760000000     0.143730000000     0.490920000000    -0.102284   
C149     C      0.242370000000     0.211920000000     0.517210000000    -0.0384049  
C150     C      0.212410000000     0.242030000000     0.519050000000    -0.0235452  
C151     C      0.276710000000     0.216850000000     0.492150000000    -0.00444801 
C152     C      0.350120000000     0.195830000000     0.489740000000    -0.10307    
C153     C      0.216100000000     0.277810000000     0.495940000000    -0.0287266  
C154     C      0.143140000000     0.300140000000     0.498930000000    -0.137562   
C155     C      0.250330000000     0.282650000000     0.470740000000    -0.0234025  
C156     C      0.113900000000     0.330920000000     0.500220000000     0.107767   
C157     C      0.165550000000     0.381310000000     0.500760000000     0.424012   
C158     C      0.280260000000     0.252530000000     0.468850000000    -0.0378147  
C159     C      0.308900000000     0.185090000000     0.490740000000     0.0562589  
C160     C      0.184490000000     0.310060000000     0.498160000000     0.113496   
C161     C      0.145050000000     0.695940000000     0.490340000000    -0.226824   
C162     C      0.381620000000     0.829920000000     0.499610000000     0.0886062  
C163     C      0.330330000000     0.880590000000     0.499440000000     0.0880555  
C164     C      0.352180000000     0.799330000000     0.498390000000    -0.102066   
C165     C      0.282820000000     0.741610000000     0.518480000000    -0.0380318  
C166     C      0.252860000000     0.711510000000     0.516670000000    -0.0231909  
C167     C      0.279110000000     0.777400000000     0.495370000000    -0.00429966 
C168     C      0.300120000000     0.850750000000     0.498180000000    -0.10215    
C169     C      0.218480000000     0.716500000000     0.491720000000    -0.0279716  
C170     C      0.195970000000     0.643540000000     0.490260000000    -0.132926   
C171     C      0.214900000000     0.752190000000     0.468420000000    -0.0230555  
C172     C      0.165130000000     0.614350000000     0.490350000000     0.112847   
C173     C      0.114820000000     0.666080000000     0.490490000000     0.4248     
C174     C      0.244850000000     0.782280000000     0.470230000000    -0.0380592  
C175     C      0.310850000000     0.809540000000     0.497410000000     0.0555937  
C176     C      0.186140000000     0.684920000000     0.490570000000     0.114124   
C177     C      0.799430000000     0.485030000000     0.350700000000    -0.225499   
C178     C      0.664550000000     0.486560000000     0.114600000000     0.0900724  
C179     C      0.614050000000     0.485940000000     0.166070000000     0.0922057  
C180     C      0.695220000000     0.484630000000     0.143880000000    -0.102175   
C181     C      0.752710000000     0.507000000000     0.212310000000    -0.038618   
C182     C      0.782940000000     0.506960000000     0.242180000000    -0.023605   
C183     C      0.717590000000     0.483000000000     0.216820000000    -0.00396742 
C184     C      0.644010000000     0.484000000000     0.196170000000    -0.100561   
C185     C      0.778760000000     0.482980000000     0.277320000000    -0.0288304  
C186     C      0.851750000000     0.484530000000     0.299680000000    -0.137742   
C187     C      0.743770000000     0.458760000000     0.281750000000    -0.0229723  
C188     C      0.880980000000     0.486620000000     0.330430000000     0.111098   
C189     C      0.829320000000     0.487210000000     0.380840000000     0.426604   
C190     C      0.713540000000     0.458770000000     0.251840000000    -0.0378699  
C191     C      0.685200000000     0.483650000000     0.185270000000     0.0561992  
C192     C      0.810390000000     0.483930000000     0.309610000000     0.114238   
C193     C      0.195090000000     0.505570000000     0.350900000000    -0.22652    
C194     C      0.329480000000     0.504430000000     0.114090000000     0.0894737  
C195     C      0.380110000000     0.504180000000     0.165430000000     0.0897913  
C196     C      0.298860000000     0.505510000000     0.143520000000    -0.0991232  
C197     C      0.241460000000     0.482560000000     0.212190000000    -0.0394953  
C198     C      0.211340000000     0.482650000000     0.242210000000    -0.0228404  
C199     C      0.276730000000     0.506370000000     0.216630000000    -0.00256198 
C200     C      0.350220000000     0.505320000000     0.195650000000    -0.0978087  
C201     C      0.215740000000     0.506550000000     0.277410000000    -0.0290614  
C202     C      0.142700000000     0.505320000000     0.299970000000    -0.137273   
C203     C      0.250880000000     0.530570000000     0.281720000000    -0.0219992  
C204     C      0.113500000000     0.504160000000     0.330830000000     0.107939   
C205     C      0.165230000000     0.504370000000     0.381140000000     0.424164   
C206     C      0.281020000000     0.530460000000     0.251710000000    -0.0386264  
C207     C      0.308990000000     0.505840000000     0.184900000000     0.0545951  
C208     C      0.184100000000     0.505940000000     0.309790000000     0.113587   
C209     C      0.350330000000     0.486300000000     0.800110000000    -0.227065   
C210     C      0.165180000000     0.487100000000     0.614580000000     0.0926305  
C211     C      0.114110000000     0.488830000000     0.665480000000     0.0916836  
C212     C      0.195460000000     0.485530000000     0.644320000000    -0.0974495  
C213     C      0.212030000000     0.462170000000     0.753080000000    -0.0378304  
C214     C      0.241930000000     0.462410000000     0.783340000000    -0.0228569  
C215     C      0.216760000000     0.485650000000     0.717630000000    -0.00250514 
C216     C      0.143630000000     0.487210000000     0.695970000000    -0.0986651  
C217     C      0.277210000000     0.486150000000     0.778780000000    -0.0279891  
C218     C      0.298920000000     0.487580000000     0.852050000000    -0.133547   
C219     C      0.281860000000     0.509660000000     0.743360000000    -0.0222182  
C220     C      0.329510000000     0.489150000000     0.881510000000     0.113436   
C221     C      0.380260000000     0.487870000000     0.830190000000     0.426231   
C222     C      0.252010000000     0.509400000000     0.713140000000    -0.0373592  
C223     C      0.184890000000     0.485870000000     0.685590000000     0.0561891  
C224     C      0.309160000000     0.486510000000     0.810750000000     0.114944   
C225     C      0.644350000000     0.502780000000     0.800090000000    -0.226998   
C226     C      0.881170000000     0.501500000000     0.666040000000     0.090534   
C227     C      0.830030000000     0.501860000000     0.615210000000     0.0903632  
C228     C      0.851640000000     0.502080000000     0.696580000000    -0.0974674  
C229     C      0.782960000000     0.526000000000     0.753710000000    -0.0393716  
C230     C      0.752920000000     0.525870000000     0.783830000000    -0.0227479  
C231     C      0.778450000000     0.502320000000     0.718350000000    -0.00228849 
C232     C      0.799730000000     0.502420000000     0.644990000000    -0.0971171  
C233     C      0.717670000000     0.502100000000     0.779250000000    -0.0292663  
C234     C      0.695400000000     0.501480000000     0.852360000000    -0.136754   
C235     C      0.713250000000     0.478320000000     0.743970000000    -0.0221141  
C236     C      0.664620000000     0.500950000000     0.881640000000     0.109326   
C237     C      0.614200000000     0.502300000000     0.830010000000     0.424529   
C238     C      0.743270000000     0.478430000000     0.713900000000    -0.0385841  
C239     C      0.810330000000     0.502390000000     0.686270000000     0.054889   
C240     C      0.685460000000     0.502190000000     0.810990000000     0.114281   
C241     C      0.850680000000     0.799510000000     0.991800000000    -0.22648    
C242     C      0.614120000000     0.665030000000     0.994420000000     0.090057   
C243     C      0.665230000000     0.614200000000     0.994230000000     0.0884703  
C244     C      0.643640000000     0.695540000000     0.993460000000    -0.0983047  
C245     C      0.712470000000     0.752650000000     0.016230000000    -0.0322872  
C246     C      0.742400000000     0.782830000000     0.015860000000    -0.0165927  
C247     C      0.716730000000     0.717420000000     0.992330000000    -0.0093471  
C248     C      0.695550000000     0.643980000000     0.993200000000    -0.101669   
C249     C      0.777340000000     0.778530000000     0.991570000000    -0.0349073  
C250     C      0.799530000000     0.851660000000     0.992330000000    -0.137534   
C251     C      0.781520000000     0.743390000000     0.967530000000    -0.0220739  
C252     C      0.830240000000     0.881010000000     0.993120000000     0.108617   
C253     C      0.880780000000     0.829510000000     0.992640000000     0.424622   
C254     C      0.751590000000     0.713180000000     0.967920000000    -0.0374129  
C255     C      0.684950000000     0.685250000000     0.992930000000     0.0562973  
C256     C      0.809540000000     0.810310000000     0.991770000000     0.11487    
C257     C      0.643440000000     0.298790000000     0.010910000000    -0.225314   
C258     C      0.881030000000     0.165950000000     0.009480000000     0.0908679  
C259     C      0.829990000000     0.115050000000     0.008050000000     0.0897104  
C260     C      0.851440000000     0.196350000000     0.011300000000    -0.101944   
C261     C      0.782470000000     0.253190000000     0.988130000000    -0.0450063  
C262     C      0.752210000000     0.283020000000     0.988090000000    -0.0298898  
C263     C      0.778260000000     0.217950000000     0.011990000000     0.00185407 
C264     C      0.799620000000     0.144690000000     0.009980000000    -0.100857   
C265     C      0.717020000000     0.278380000000     0.011960000000    -0.0223929  
C266     C      0.694310000000     0.351230000000     0.010230000000    -0.135566   
C267     C      0.712920000000     0.243240000000     0.036020000000    -0.0237074  
C268     C      0.663490000000     0.380350000000     0.008340000000     0.110504   
C269     C      0.613190000000     0.328610000000     0.009040000000     0.427448   
C270     C      0.743170000000     0.213350000000     0.036000000000    -0.0388604  
C271     C      0.810150000000     0.185940000000     0.011320000000     0.0549529  
C272     C      0.684540000000     0.309850000000     0.011250000000     0.113079   
C273     C      0.351060000000     0.696720000000     0.011440000000    -0.224925   
C274     C      0.114420000000     0.830950000000     0.007420000000     0.0916789  
C275     C      0.165340000000     0.881950000000     0.009620000000     0.0916857  
C276     C      0.144010000000     0.800530000000     0.009230000000    -0.0953945  
C277     C      0.212420000000     0.743640000000     0.034830000000    -0.0390295  
C278     C      0.242440000000     0.713500000000     0.034840000000    -0.0232343  
C279     C      0.217230000000     0.779100000000     0.011400000000     0.00337133 
C280     C      0.195690000000     0.852300000000     0.011380000000    -0.10049    
C281     C      0.277910000000     0.718160000000     0.011400000000    -0.0220214  
C282     C      0.299560000000     0.644920000000     0.009950000000    -0.134979   
C283     C      0.282650000000     0.753620000000     0.987960000000    -0.0288842  
C284     C      0.330080000000     0.615420000000     0.008380000000     0.112639   
C285     C      0.380950000000     0.666590000000     0.009860000000     0.428038   
C286     C      0.252700000000     0.783720000000     0.987970000000    -0.0442309  
C287     C      0.185250000000     0.811020000000     0.010910000000     0.0547944  
C288     C      0.309860000000     0.686170000000     0.011130000000     0.114111   
C289     C      0.298410000000     0.351830000000     0.990930000000    -0.228037   
C290     C      0.164670000000     0.114560000000     0.993180000000     0.0871991  
C291     C      0.113780000000     0.165620000000     0.993200000000     0.0868014  
C292     C      0.195140000000     0.144150000000     0.992120000000    -0.104387   
C293     C      0.252170000000     0.213160000000     0.014820000000    -0.0321303  
C294     C      0.282180000000     0.243280000000     0.014550000000    -0.0176878  
C295     C      0.216870000000     0.217360000000     0.991020000000    -0.0110641  
C296     C      0.143500000000     0.195980000000     0.992070000000    -0.103961   
C297     C      0.277630000000     0.278350000000     0.990480000000    -0.0342553  
C298     C      0.350670000000     0.300780000000     0.991170000000    -0.133385   
C299     C      0.242410000000     0.282470000000     0.966540000000    -0.0227195  
C300     C      0.379950000000     0.331540000000     0.992080000000     0.109066   
C301     C      0.328360000000     0.381990000000     0.991890000000     0.421278   
C302     C      0.212390000000     0.252350000000     0.966820000000    -0.0375454  
C303     C      0.184780000000     0.185460000000     0.991650000000     0.0562103  
C304     C      0.309300000000     0.310690000000     0.990730000000     0.113478   
C305     C      0.850790000000     0.998970000000     0.799390000000    -0.238299   
C306     C      0.665170000000     0.007230000000     0.614840000000     0.0919864  
C307     C      0.613980000000     0.006240000000     0.665610000000     0.0897239  
C308     C      0.695450000000     0.007390000000     0.644640000000    -0.0977951  
C309     C      0.752110000000     0.028860000000     0.714430000000    -0.0399806  
C310     C      0.782220000000     0.027190000000     0.744390000000    -0.0196083  
C311     C      0.716580000000     0.005350000000     0.718020000000     0.00435983 
C312     C      0.643470000000     0.006380000000     0.696170000000    -0.0990587  
C313     C      0.777500000000     0.002000000000     0.778640000000    -0.0287178  
C314     C      0.799680000000     0.999160000000     0.851630000000    -0.156299   
C315     C      0.741890000000     0.978640000000     0.782330000000    -0.0257343  
C316     C      0.830390000000     0.997850000000     0.880930000000     0.115839   
C317     C      0.880890000000     0.997570000000     0.829350000000     0.428881   
C318     C      0.711790000000     0.980270000000     0.752360000000    -0.045992   
C319     C      0.684790000000     0.006590000000     0.685900000000     0.054425   
C320     C      0.809690000000     0.000000000000     0.810290000000     0.132569   
C321     C      0.350390000000     0.997820000000     0.696390000000    -0.226516   
C322     C      0.114290000000     0.006120000000     0.830980000000     0.0911411  
C323     C      0.165600000000     0.006450000000     0.881640000000     0.0910407  
C324     C      0.143680000000     0.006210000000     0.800350000000    -0.0958926  
C325     C      0.211510000000     0.979950000000     0.743730000000    -0.0433564  
C326     C      0.241420000000     0.978340000000     0.713560000000    -0.0311264  
C327     C      0.216660000000     0.004750000000     0.778220000000     0.00220043 
C328     C      0.195810000000     0.006540000000     0.851730000000    -0.100893   
C329     C      0.277210000000     0.001410000000     0.717240000000    -0.016658   
C330     C      0.299290000000     0.998730000000     0.644150000000    -0.142272   
C331     C      0.282280000000     0.026350000000     0.751630000000    -0.0255094  
C332     C      0.330000000000     0.997350000000     0.614830000000     0.109468   
C333     C      0.380480000000     0.996370000000     0.666430000000     0.422077   
C334     C      0.252360000000     0.028000000000     0.781770000000    -0.0376363  
C335     C      0.185020000000     0.006030000000     0.810500000000     0.0549072  
C336     C      0.309320000000     0.999290000000     0.685500000000     0.107449   
C337     C      0.143950000000     0.994590000000     0.196530000000    -0.228231   
C338     C      0.381090000000     0.005170000000     0.329760000000     0.0913041  
C339     C      0.330130000000     0.003370000000     0.380740000000     0.0893126  
C340     C      0.351440000000     0.004730000000     0.299320000000    -0.0968849  
C341     C      0.281340000000     0.025080000000     0.242410000000    -0.0452171  
C342     C      0.251240000000     0.023230000000     0.212420000000    -0.011084   
C343     C      0.278220000000     0.001340000000     0.277850000000     0.00751762 
C344     C      0.299730000000     0.002860000000     0.351090000000    -0.0993918  
C345     C      0.217340000000     0.997600000000     0.217170000000    -0.0397656  
C346     C      0.194920000000     0.996240000000     0.144180000000    -0.139857   
C347     C      0.214310000000     0.973750000000     0.252550000000    -0.0162259  
C348     C      0.164130000000     0.995400000000     0.114940000000     0.108398   
C349     C      0.113760000000     0.993830000000     0.166610000000     0.424187   
C350     C      0.244390000000     0.975590000000     0.282520000000    -0.0501467  
C351     C      0.310180000000     0.003170000000     0.309790000000     0.0527036  
C352     C      0.185040000000     0.996040000000     0.185560000000     0.116531   
C353     C      0.695390000000     0.995800000000     0.351230000000    -0.227364   
C354     C      0.829390000000     0.003530000000     0.114560000000     0.0899044  
C355     C      0.880130000000     0.004800000000     0.165790000000     0.0916446  
C356     C      0.798830000000     0.003180000000     0.144080000000    -0.0992046  
C357     C      0.741080000000     0.024180000000     0.213320000000    -0.0444349  
C358     C      0.710960000000     0.022330000000     0.243290000000    -0.0119339  
C359     C      0.777060000000     0.001390000000     0.217240000000     0.00753518 
C360     C      0.850330000000     0.004370000000     0.196070000000    -0.0956606  
C361     C      0.716110000000     0.997620000000     0.277840000000    -0.0386626  
C362     C      0.643090000000     0.995460000000     0.300190000000    -0.136731   
C363     C      0.752010000000     0.974680000000     0.281610000000    -0.0163192  
C364     C      0.613840000000     0.994710000000     0.330990000000     0.109336   
C365     C      0.665490000000     0.995060000000     0.381410000000     0.425358   
C366     C      0.782120000000     0.976570000000     0.251690000000    -0.0490634  
C367     C      0.809110000000     0.003200000000     0.185410000000     0.0531978  
C368     C      0.684450000000     0.996180000000     0.310110000000     0.116259   
C369     C      0.010860000000     0.146350000000     0.801020000000    -0.225486   
C370     C      0.007850000000     0.381950000000     0.665730000000     0.0897548  
C371     C      0.008890000000     0.330350000000     0.615360000000     0.0907344  
C372     C      0.009880000000     0.352790000000     0.696500000000    -0.100205   
C373     C      0.987850000000     0.284380000000     0.754130000000    -0.0451931  
C374     C      0.988070000000     0.254600000000     0.784450000000    -0.0294844  
C375     C      0.012030000000     0.280000000000     0.719110000000     0.00228529 
C376     C      0.010950000000     0.300370000000     0.645440000000    -0.101303   
C377     C      0.012430000000     0.219710000000     0.780450000000    -0.0227147  
C378     C      0.010520000000     0.197260000000     0.853450000000    -0.136534   
C379     C      0.036860000000     0.215460000000     0.745580000000    -0.0235114  
C380     C      0.008460000000     0.166440000000     0.882620000000     0.111229   
C381     C      0.008720000000     0.116160000000     0.830820000000     0.427046   
C382     C      0.036660000000     0.245260000000     0.715250000000    -0.0389125  
C383     C      0.011160000000     0.311410000000     0.686600000000     0.0548219  
C384     C      0.011530000000     0.187410000000     0.812060000000     0.113575   
C385     C      0.992310000000     0.645350000000     0.696230000000    -0.228528   
C386     C      0.994090000000     0.882450000000     0.829890000000     0.0897012  
C387     C      0.993700000000     0.831260000000     0.880670000000     0.0896506  
C388     C      0.993460000000     0.852930000000     0.799330000000    -0.097195   
C389     C      0.969300000000     0.784150000000     0.742290000000    -0.0379333  
C390     C      0.969250000000     0.754000000000     0.712280000000    -0.0215702  
C391     C      0.993120000000     0.779710000000     0.777560000000    -0.00818547 
C392     C      0.993100000000     0.800980000000     0.850880000000    -0.0975253  
C393     C      0.993010000000     0.718740000000     0.716870000000    -0.03498    
C394     C      0.993260000000     0.696290000000     0.643840000000    -0.134988   
C395     C      0.016960000000     0.714420000000     0.752040000000    -0.0157835  
C396     C      0.993720000000     0.665440000000     0.614630000000     0.109948   
C397     C      0.992720000000     0.615120000000     0.666370000000     0.423496   
C398     C      0.017010000000     0.744540000000     0.782020000000    -0.0321875  
C399     C      0.993130000000     0.811610000000     0.809620000000     0.0557505  
C400     C      0.992770000000     0.686440000000     0.685230000000     0.115214   
C401     C      0.009820000000     0.799570000000     0.144550000000    -0.223921   
C402     C      0.006550000000     0.665300000000     0.381250000000     0.0917677  
C403     C      0.008200000000     0.614360000000     0.330230000000     0.0918995  
C404     C      0.008270000000     0.695740000000     0.351660000000    -0.0968823  
C405     C      0.033580000000     0.752660000000     0.283130000000    -0.0383921  
C406     C      0.033530000000     0.782810000000     0.253120000000    -0.023871   
C407     C      0.010030000000     0.717260000000     0.278420000000     0.00279892 
C408     C      0.009880000000     0.644020000000     0.299890000000    -0.100841   
C409     C      0.009920000000     0.778230000000     0.217740000000    -0.0209617  
C410     C      0.008620000000     0.851460000000     0.196000000000    -0.130972   
C411     C      0.986350000000     0.742850000000     0.213110000000    -0.029423   
C412     C      0.007060000000     0.880920000000     0.165430000000     0.113203   
C413     C      0.008250000000     0.829670000000     0.114610000000     0.427852   
C414     C      0.986420000000     0.712730000000     0.243060000000    -0.0437405  
C415     C      0.009640000000     0.685300000000     0.310390000000     0.0551839  
C416     C      0.009640000000     0.810180000000     0.185750000000     0.113202   
C417     C      0.989570000000     0.144540000000     0.196700000000    -0.226773   
C418     C      0.991390000000     0.381820000000     0.330590000000     0.0869906  
C419     C      0.991380000000     0.330690000000     0.381420000000     0.0871461  
C420     C      0.990310000000     0.352280000000     0.300060000000    -0.104582   
C421     C      0.013090000000     0.283310000000     0.242930000000    -0.0326384  
C422     C      0.012950000000     0.253180000000     0.212920000000    -0.0177954  
C423     C      0.989270000000     0.279070000000     0.278210000000    -0.0110565  
C424     C      0.990230000000     0.300370000000     0.351640000000    -0.103894   
C425     C      0.988970000000     0.218050000000     0.217440000000    -0.0349213  
C426     C      0.989940000000     0.195540000000     0.144390000000    -0.138598   
C427     C      0.964980000000     0.213900000000     0.252630000000    -0.022575   
C428     C      0.990950000000     0.164760000000     0.115130000000     0.107111   
C429     C      0.990630000000     0.114350000000     0.166760000000     0.422984   
C430     C      0.965140000000     0.244030000000     0.282650000000    -0.0373326  
C431     C      0.989830000000     0.310950000000     0.310350000000     0.0562248  
C432     C      0.989370000000     0.185670000000     0.185780000000     0.113898   
Eu1      Eu     0.996560000000     0.997230000000     0.070290000000     3.48544    
Eu2      Eu     0.997700000000     0.925820000000     0.997950000000     3.02948    
Eu3      Eu     0.996840000000     0.070320000000     0.998090000000     3.44763    
Eu4      Eu     0.924880000000     0.998140000000     0.998040000000     3.00317    
Eu5      Eu     0.069620000000     0.997820000000     0.998010000000     3.45952    
Eu6      Eu     0.997860000000     0.998690000000     0.925850000000     3.04501    
Eu7      Eu     0.996790000000     0.498410000000     0.425940000000     3.45796    
Eu8      Eu     0.997350000000     0.570340000000     0.497960000000     3.02881    
Eu9      Eu     0.996990000000     0.425680000000     0.498600000000     3.45943    
Eu10     Eu     0.924990000000     0.497670000000     0.498050000000     3.10308    
Eu11     Eu     0.069450000000     0.498550000000     0.498560000000     3.57233    
Eu12     Eu     0.997580000000     0.497760000000     0.570510000000     3.04454    
Eu13     Eu     0.496990000000     0.997390000000     0.425900000000     3.48899    
Eu14     Eu     0.424980000000     0.997980000000     0.497820000000     3.01089    
Eu15     Eu     0.569440000000     0.997960000000     0.498620000000     3.49604    
Eu16     Eu     0.497860000000     0.925700000000     0.498070000000     3.06541    
Eu17     Eu     0.496640000000     0.070380000000     0.498120000000     3.52929    
Eu18     Eu     0.497520000000     0.998590000000     0.570420000000     3.03821    
Eu19     Eu     0.497030000000     0.425830000000     0.997700000000     3.50052    
Eu20     Eu     0.569560000000     0.497250000000     0.998480000000     3.01716    
Eu21     Eu     0.424930000000     0.498970000000     0.997780000000     3.47104    
Eu22     Eu     0.497030000000     0.498010000000     0.925990000000     3.10523    
Eu23     Eu     0.497530000000     0.498100000000     0.070590000000     3.54817    
Eu24     Eu     0.497440000000     0.570260000000     0.998930000000     3.0625     
F1       F      0.491100000000     0.074940000000     0.316580000000    -0.463391   
F2       F      0.486720000000     0.575240000000     0.180440000000    -0.462234   
F3       F      0.501990000000     0.679520000000     0.921250000000    -0.446428   
F4       F      0.485020000000     0.316670000000     0.919910000000    -0.448054   
F5       F      0.816440000000     0.419640000000     0.490850000000    -0.436158   
F6       F      0.679370000000     0.920990000000     0.487830000000    -0.437041   
F7       F      0.178530000000     0.420540000000     0.502080000000    -0.446866   
F8       F      0.075580000000     0.679090000000     0.490390000000    -0.46066    
F9       F      0.816340000000     0.488430000000     0.420080000000    -0.436097   
F10      F      0.178280000000     0.503890000000     0.420380000000    -0.446739   
F11      F      0.419600000000     0.487290000000     0.817490000000    -0.453702   
F12      F      0.574950000000     0.503130000000     0.817060000000    -0.45372    
F13      F      0.920070000000     0.816640000000     0.992750000000    -0.447652   
F14      F      0.573960000000     0.315600000000     0.008490000000    -0.446406   
F15      F      0.420320000000     0.679170000000     0.010520000000    -0.444558   
F16      F      0.315460000000     0.421260000000     0.992190000000    -0.465468   
F17      F      0.920160000000     0.996410000000     0.816450000000    -0.447538   
F18      F      0.419710000000     0.994740000000     0.679360000000    -0.462979   
F19      F      0.074520000000     0.992570000000     0.179570000000    -0.446856   
F20      F      0.678470000000     0.994950000000     0.420670000000    -0.439557   
F21      F      0.008050000000     0.076950000000     0.817740000000    -0.443176   
F22      F      0.991970000000     0.575890000000     0.679390000000    -0.463006   
F23      F      0.008800000000     0.817020000000     0.075240000000    -0.443664   
F24      F      0.990970000000     0.075090000000     0.179710000000    -0.446924   
H1       H      0.959640000000     0.960010000000     0.065250000000    -0.180834   
H2       H      0.056090000000     0.057170000000     0.057830000000     0.415721   
H3       H      0.959850000000     0.065790000000     0.960810000000    -0.173946   
H4       H      0.065060000000     0.960840000000     0.960820000000    -0.177705   
H5       H      0.959590000000     0.535470000000     0.430610000000    -0.170916   
H6       H      0.056420000000     0.439010000000     0.438780000000     0.416897   
H7       H      0.960030000000     0.430410000000     0.535810000000    -0.173655   
H8       H      0.064720000000     0.535580000000     0.535720000000    -0.19041    
H9       H      0.460060000000     0.960240000000     0.430740000000    -0.179582   
H10      H      0.556290000000     0.057250000000     0.438680000000     0.418688   
H11      H      0.564890000000     0.960960000000     0.535810000000    -0.177175   
H12      H      0.459600000000     0.065500000000     0.535140000000    -0.187449   
H13      H      0.534270000000     0.430410000000     0.960810000000    -0.178898   
H14      H      0.437380000000     0.439090000000     0.057210000000     0.416251   
H15      H      0.429870000000     0.536220000000     0.960750000000    -0.169862   
H16      H      0.535000000000     0.534760000000     0.065970000000    -0.187901   
H17      H      0.499260000000     0.320630000000     0.082990000000     0.0444506  
H18      H      0.494200000000     0.174350000000     0.412430000000     0.0139949  
H19      H      0.540600000000     0.238200000000     0.187280000000     0.0434164  
H20      H      0.453100000000     0.257840000000     0.308710000000     0.0356557  
H21      H      0.495500000000     0.226930000000     0.361220000000     0.0635345  
H22      H      0.455120000000     0.310320000000     0.256310000000     0.0402462  
H23      H      0.492210000000     0.135230000000     0.267670000000     0.116626   
H24      H      0.498170000000     0.268340000000     0.134760000000     0.0616468  
H25      H      0.500440000000     0.361150000000     0.227500000000     0.0565905  
H26      H      0.538540000000     0.185720000000     0.239640000000     0.0393122  
H27      H      0.500760000000     0.412790000000     0.175160000000     0.0249103  
H28      H      0.502490000000     0.820940000000     0.412740000000     0.0209954  
H29      H      0.494830000000     0.674110000000     0.084310000000     0.0414691  
H30      H      0.542610000000     0.737210000000     0.308710000000     0.0409394  
H31      H      0.455260000000     0.759310000000     0.187590000000     0.0393697  
H32      H      0.497110000000     0.726810000000     0.135300000000     0.0709305  
H33      H      0.459460000000     0.812000000000     0.239640000000     0.0409332  
H34      H      0.489270000000     0.635700000000     0.229180000000     0.116916   
H35      H      0.501030000000     0.768690000000     0.361030000000     0.0562505  
H36      H      0.506700000000     0.861330000000     0.268250000000     0.0574723  
H37      H      0.538300000000     0.684500000000     0.256730000000     0.0402608  
H38      H      0.507340000000     0.913020000000     0.320580000000     0.0257908  
H39      H      0.495390000000     0.913170000000     0.675640000000     0.0376994  
H40      H      0.499070000000     0.583660000000     0.821840000000     0.0462701  
H41      H      0.453600000000     0.808920000000     0.757720000000     0.0432109  
H42      H      0.540820000000     0.687270000000     0.738530000000     0.0396602  
H43      H      0.497990000000     0.634850000000     0.769210000000     0.0724373  
H44      H      0.539370000000     0.739730000000     0.686090000000     0.041115   
H45      H      0.501150000000     0.728390000000     0.860930000000     0.119531   
H46      H      0.496210000000     0.861360000000     0.727900000000     0.0597929  
H47      H      0.494690000000     0.768750000000     0.634950000000     0.0560834  
H48      H      0.455130000000     0.756520000000     0.810160000000     0.042349   
H49      H      0.494660000000     0.821110000000     0.583350000000     0.0213734  
H50      H      0.501090000000     0.084620000000     0.674620000000     0.0352917  
H51      H      0.493720000000     0.413170000000     0.821470000000     0.0493651  
H52      H      0.541000000000     0.188730000000     0.757970000000     0.0419777  
H53      H      0.454270000000     0.310180000000     0.735480000000     0.0402355  
H54      H      0.495920000000     0.362390000000     0.768510000000     0.0734853  
H55      H      0.458390000000     0.258070000000     0.682820000000     0.0414756  
H56      H      0.487570000000     0.268210000000     0.859240000000     0.120217   
H57      H      0.499460000000     0.136550000000     0.726630000000     0.0605769  
H58      H      0.505190000000     0.228860000000     0.633530000000     0.0565404  
H59      H      0.536740000000     0.240740000000     0.810630000000     0.042786   
H60      H      0.505980000000     0.176280000000     0.582060000000     0.0206865  
H61      H      0.582390000000     0.175440000000     0.500550000000     0.01913    
H62      H      0.912510000000     0.320420000000     0.490930000000     0.0150077  
H63      H      0.685640000000     0.254450000000     0.452560000000     0.0407631  
H64      H      0.810090000000     0.239240000000     0.536580000000     0.0363727  
H65      H      0.861370000000     0.267680000000     0.490670000000     0.064442   
H66      H      0.757260000000     0.187300000000     0.539960000000     0.0415737  
H67      H      0.767710000000     0.359300000000     0.491560000000     0.120816   
H68      H      0.634470000000     0.227460000000     0.498970000000     0.0558535  
H69      H      0.726620000000     0.134070000000     0.498940000000     0.0613664  
H70      H      0.738450000000     0.306390000000     0.449210000000     0.0413595  
H71      H      0.674060000000     0.082790000000     0.501260000000     0.0396916  
H72      H      0.911920000000     0.675020000000     0.498990000000     0.0263153  
H73      H      0.583350000000     0.821890000000     0.493380000000     0.0161739  
H74      H      0.807880000000     0.757720000000     0.539000000000     0.0417146  
H75      H      0.686620000000     0.737690000000     0.451400000000     0.0369243  
H76      H      0.634370000000     0.769160000000     0.494200000000     0.0646632  
H77      H      0.738740000000     0.684950000000     0.454110000000     0.0433232  
H78      H      0.728120000000     0.860510000000     0.488610000000     0.1209     
H79      H      0.860210000000     0.727210000000     0.497130000000     0.0576751  
H80      H      0.767500000000     0.634400000000     0.499720000000     0.0609138  
H81      H      0.755870000000     0.810450000000     0.536130000000     0.0407304  
H82      H      0.819880000000     0.582750000000     0.500740000000     0.0393305  
H83      H      0.411460000000     0.175500000000     0.489320000000     0.0205295  
H84      H      0.082300000000     0.321490000000     0.500360000000     0.0150721  
H85      H      0.305970000000     0.257020000000     0.448750000000     0.0407454  
H86      H      0.186700000000     0.237600000000     0.539190000000     0.036136   
H87      H      0.133260000000     0.268730000000     0.497760000000     0.0641914  
H88      H      0.238990000000     0.185100000000     0.536050000000     0.040436   
H89      H      0.227170000000     0.360060000000     0.499620000000     0.119821   
H90      H      0.359400000000     0.227440000000     0.489950000000     0.0562259  
H91      H      0.267280000000     0.134010000000     0.490960000000     0.0562071  
H92      H      0.253750000000     0.309560000000     0.452030000000     0.04112    
H93      H      0.319960000000     0.082710000000     0.491150000000     0.0218178  
H94      H      0.320480000000     0.912050000000     0.499900000000     0.0203189  
H95      H      0.174510000000     0.582740000000     0.490270000000     0.0405663  
H96      H      0.241410000000     0.809170000000     0.451500000000     0.0402361  
H97      H      0.256230000000     0.684670000000     0.535480000000     0.0380374  
H98      H      0.227390000000     0.633640000000     0.489750000000     0.0707385  
H99      H      0.308550000000     0.737150000000     0.538570000000     0.0408816  
H100     H      0.136140000000     0.727660000000     0.490880000000     0.117044   
H101     H      0.268500000000     0.860020000000     0.498120000000     0.0555325  
H102     H      0.361870000000     0.767850000000     0.497460000000     0.0560237  
H103     H      0.189110000000     0.756700000000     0.448410000000     0.0397074  
H104     H      0.413200000000     0.820450000000     0.499980000000     0.0212492  
H105     H      0.582620000000     0.486540000000     0.176010000000     0.0315006  
H106     H      0.912570000000     0.487050000000     0.320990000000     0.0148881  
H107     H      0.687170000000     0.439460000000     0.255960000000     0.0414934  
H108     H      0.809180000000     0.526460000000     0.238140000000     0.0356301  
H109     H      0.861620000000     0.483140000000     0.268260000000     0.0633227  
H110     H      0.756500000000     0.526530000000     0.186040000000     0.0404184  
H111     H      0.767720000000     0.485040000000     0.359650000000     0.120977   
H112     H      0.634870000000     0.483670000000     0.227830000000     0.059518   
H113     H      0.726650000000     0.483690000000     0.134030000000     0.0553513  
H114     H      0.739910000000     0.439490000000     0.308200000000     0.0414863  
H115     H      0.673940000000     0.487350000000     0.083000000000     0.0215546  
H116     H      0.411560000000     0.503580000000     0.175290000000     0.0396985  
H117     H      0.081890000000     0.503790000000     0.321450000000     0.0150902  
H118     H      0.307480000000     0.549650000000     0.255780000000     0.0440664  
H119     H      0.184970000000     0.463320000000     0.238200000000     0.0354333  
H120     H      0.132760000000     0.506130000000     0.268560000000     0.0639508  
H121     H      0.237470000000     0.463180000000     0.185840000000     0.0415469  
H122     H      0.226810000000     0.505500000000     0.359830000000     0.119682   
H123     H      0.359460000000     0.505110000000     0.227280000000     0.0604106  
H124     H      0.267400000000     0.506480000000     0.133800000000     0.0588488  
H125     H      0.254940000000     0.549840000000     0.308150000000     0.0407745  
H126     H      0.320020000000     0.504260000000     0.082500000000     0.0334844  
H127     H      0.082600000000     0.490220000000     0.675070000000     0.0345396  
H128     H      0.319890000000     0.490380000000     0.913030000000     0.0348494  
H129     H      0.256250000000     0.528400000000     0.686560000000     0.0432652  
H130     H      0.237690000000     0.443550000000     0.810020000000     0.038405   
H131     H      0.267410000000     0.488080000000     0.861650000000     0.068842   
H132     H      0.185440000000     0.443160000000     0.757220000000     0.041402   
H133     H      0.359540000000     0.484610000000     0.768510000000     0.119353   
H134     H      0.134100000000     0.487910000000     0.727520000000     0.0595793  
H135     H      0.227000000000     0.483860000000     0.634930000000     0.0627893  
H136     H      0.308320000000     0.528850000000     0.739220000000     0.0415482  
H137     H      0.174890000000     0.486890000000     0.583060000000     0.0460552  
H138     H      0.820270000000     0.501930000000     0.583710000000     0.0392352  
H139     H      0.674060000000     0.500130000000     0.913240000000     0.015505   
H140     H      0.739170000000     0.459290000000     0.687390000000     0.0439334  
H141     H      0.756990000000     0.544950000000     0.810390000000     0.0359576  
H142     H      0.726850000000     0.500650000000     0.862170000000     0.0633704  
H143     H      0.809430000000     0.545170000000     0.757850000000     0.0424704  
H144     H      0.635380000000     0.504040000000     0.768390000000     0.119028   
H145     H      0.768160000000     0.503270000000     0.635620000000     0.0612879  
H146     H      0.861230000000     0.501590000000     0.728100000000     0.0588623  
H147     H      0.686800000000     0.459140000000     0.739820000000     0.0412899  
H148     H      0.912730000000     0.501040000000     0.675600000000     0.0384025  
H149     H      0.674950000000     0.582700000000     0.994610000000     0.0201611  
H150     H      0.820720000000     0.912570000000     0.993510000000     0.0148054  
H151     H      0.755520000000     0.686740000000     0.948660000000     0.0407082  
H152     H      0.738520000000     0.809200000000     0.035230000000     0.0368479  
H153     H      0.768070000000     0.861440000000     0.991770000000     0.0627743  
H154     H      0.686290000000     0.756590000000     0.035850000000     0.042135   
H155     H      0.859750000000     0.767830000000     0.991870000000     0.118722   
H156     H      0.727140000000     0.634630000000     0.993260000000     0.0548919  
H157     H      0.634020000000     0.727040000000     0.992670000000     0.0606705  
H158     H      0.807760000000     0.739400000000     0.948000000000     0.0397058  
H159     H      0.582580000000     0.674630000000     0.994710000000     0.0437918  
H160     H      0.820310000000     0.083560000000     0.006690000000     0.0229413  
H161     H      0.672890000000     0.411940000000     0.007560000000     0.0170328  
H162     H      0.739280000000     0.186820000000     0.055150000000     0.0411263  
H163     H      0.756050000000     0.309360000000     0.968680000000     0.0352566  
H164     H      0.725690000000     0.361240000000     0.011150000000     0.0644221  
H165     H      0.808820000000     0.257360000000     0.968790000000     0.0389241  
H166     H      0.634560000000     0.267060000000     0.011240000000     0.120146   
H167     H      0.768040000000     0.135290000000     0.009550000000     0.0572662  
H168     H      0.860940000000     0.227850000000     0.012930000000     0.05559    
H169     H      0.686490000000     0.238990000000     0.055230000000     0.0400578  
H170     H      0.912560000000     0.175580000000     0.009470000000     0.0207373  
H171     H      0.174980000000     0.913470000000     0.009960000000     0.0213466  
H172     H      0.320370000000     0.583930000000     0.007060000000     0.0226774  
H173     H      0.257020000000     0.810320000000     0.969020000000     0.0407297  
H174     H      0.238100000000     0.686800000000     0.053650000000     0.0378815  
H175     H      0.268030000000     0.635360000000     0.009350000000     0.0672988  
H176     H      0.185680000000     0.739400000000     0.053610000000     0.0442938  
H177     H      0.360330000000     0.728300000000     0.013190000000     0.121012   
H178     H      0.227190000000     0.861770000000     0.013320000000     0.0570347  
H179     H      0.134580000000     0.768980000000     0.008430000000     0.06336    
H180     H      0.309260000000     0.757840000000     0.968990000000     0.0416415  
H181     H      0.082930000000     0.821290000000     0.005780000000     0.049356   
H182     H      0.082280000000     0.175320000000     0.993700000000     0.0188661  
H183     H      0.411520000000     0.322050000000     0.992370000000     0.0395568  
H184     H      0.185880000000     0.256240000000     0.947650000000     0.0399167  
H185     H      0.308610000000     0.239430000000     0.033840000000     0.037119   
H186     H      0.360530000000     0.269350000000     0.990440000000     0.0696887  
H187     H      0.256310000000     0.186910000000     0.034290000000     0.0401622  
H188     H      0.266710000000     0.360820000000     0.991060000000     0.114572   
H189     H      0.134090000000     0.227560000000     0.992200000000     0.0543802  
H190     H      0.226650000000     0.134590000000     0.991230000000     0.0546926  
H191     H      0.238240000000     0.308790000000     0.947170000000     0.0393198  
H192     H      0.174290000000     0.083030000000     0.993440000000     0.019212   
H193     H      0.582410000000     0.005880000000     0.675140000000     0.0278337  
H194     H      0.820890000000     0.997600000000     0.912510000000     0.0126542  
H195     H      0.685090000000     0.961270000000     0.755740000000     0.0414058  
H196     H      0.809010000000     0.046060000000     0.740970000000     0.0421626  
H197     H      0.768240000000     0.000240000000     0.861450000000     0.073236   
H198     H      0.756470000000     0.048950000000     0.688690000000     0.043086   
H199     H      0.859770000000     0.998820000000     0.767670000000     0.121169   
H200     H      0.633840000000     0.006490000000     0.727690000000     0.0582938  
H201     H      0.727040000000     0.007210000000     0.635300000000     0.0618836  
H202     H      0.737580000000     0.958490000000     0.808050000000     0.0354204  
H203     H      0.674950000000     0.007400000000     0.583340000000     0.0383969  
H204     H      0.175440000000     0.006370000000     0.913120000000     0.0208387  
H205     H      0.320530000000     0.997390000000     0.583240000000     0.0145142  
H206     H      0.256990000000     0.047890000000     0.807640000000     0.0414192  
H207     H      0.236850000000     0.958390000000     0.687740000000     0.037539   
H208     H      0.267860000000     0.000100000000     0.634360000000     0.0702173  
H209     H      0.184670000000     0.961160000000     0.740360000000     0.0415698  
H210     H      0.359380000000     0.997380000000     0.728100000000     0.114511   
H211     H      0.227420000000     0.006090000000     0.860980000000     0.0563302  
H212     H      0.133950000000     0.006590000000     0.768860000000     0.0635674  
H213     H      0.309220000000     0.045010000000     0.755040000000     0.0421071  
H214     H      0.082700000000     0.006080000000     0.821510000000     0.0488098  
H215     H      0.320470000000     0.002890000000     0.412270000000     0.0222177  
H216     H      0.173570000000     0.995680000000     0.083340000000     0.0140785  
H217     H      0.241410000000     0.956360000000     0.309110000000     0.0419818  
H218     H      0.254190000000     0.042450000000     0.185810000000     0.0347279  
H219     H      0.226350000000     0.996700000000     0.134310000000     0.0633097  
H220     H      0.306740000000     0.045620000000     0.238120000000     0.0444572  
H221     H      0.134990000000     0.994750000000     0.228250000000     0.119677   
H222     H      0.268180000000     0.002400000000     0.360560000000     0.0571971  
H223     H      0.360920000000     0.004710000000     0.267760000000     0.060386   
H224     H      0.188920000000     0.953200000000     0.256860000000     0.0380548  
H225     H      0.412620000000     0.005910000000     0.320120000000     0.0418655  
H226     H      0.911600000000     0.005520000000     0.175590000000     0.0462274  
H227     H      0.582240000000     0.994210000000     0.321560000000     0.0267064  
H228     H      0.809150000000     0.958070000000     0.255270000000     0.0443326  
H229     H      0.683940000000     0.040850000000     0.239740000000     0.0360432  
H230     H      0.633240000000     0.995130000000     0.268740000000     0.0664461  
H231     H      0.736470000000     0.043990000000     0.187400000000     0.042608   
H232     H      0.727070000000     0.996780000000     0.360220000000     0.120527   
H233     H      0.859620000000     0.005140000000     0.227680000000     0.0633387  
H234     H      0.767340000000     0.001970000000     0.134460000000     0.0564846  
H235     H      0.756650000000     0.954830000000     0.307500000000     0.0408141  
H236     H      0.819890000000     0.003020000000     0.082980000000     0.0230806  
H237     H      0.008430000000     0.320320000000     0.583950000000     0.0216331  
H238     H      0.007670000000     0.175800000000     0.914240000000     0.015707   
H239     H      0.056110000000     0.241270000000     0.688960000000     0.0412852  
H240     H      0.968410000000     0.258490000000     0.810610000000     0.0349993  
H241     H      0.011550000000     0.228660000000     0.863380000000     0.0641661  
H242     H      0.968040000000     0.310450000000     0.757760000000     0.0397918  
H243     H      0.011190000000     0.137450000000     0.769280000000     0.121219   
H244     H      0.011520000000     0.268690000000     0.636400000000     0.0568788  
H245     H      0.010680000000     0.362740000000     0.727910000000     0.0577217  
H246     H      0.056420000000     0.189210000000     0.741870000000     0.0404385  
H247     H      0.006850000000     0.413560000000     0.675040000000     0.0276823  
H248     H      0.993610000000     0.821450000000     0.912160000000     0.0429636  
H249     H      0.994400000000     0.674820000000     0.583020000000     0.0287231  
H250     H      0.036260000000     0.740500000000     0.808450000000     0.0428004  
H251     H      0.950050000000     0.758000000000     0.685800000000     0.0368497  
H252     H      0.993990000000     0.727710000000     0.633950000000     0.0677794  
H253     H      0.950130000000     0.810620000000     0.738170000000     0.0434457  
H254     H      0.991190000000     0.636450000000     0.727950000000     0.115722   
H255     H      0.992210000000     0.769410000000     0.860240000000     0.0604045  
H256     H      0.993930000000     0.862520000000     0.767800000000     0.060532   
H257     H      0.036140000000     0.687960000000     0.756190000000     0.0410491  
H258     H      0.994580000000     0.914020000000     0.820370000000     0.0423948  
H259     H      0.008360000000     0.582840000000     0.320550000000     0.0217508  
H260     H      0.005860000000     0.912420000000     0.175090000000     0.0410544  
H261     H      0.967370000000     0.686190000000     0.238820000000     0.0407097  
H262     H      0.052430000000     0.809450000000     0.257370000000     0.039538   
H263     H      0.008140000000     0.861050000000     0.227530000000     0.0711597  
H264     H      0.052500000000     0.756830000000     0.309790000000     0.0434336  
H265     H      0.011460000000     0.767980000000     0.135320000000     0.121158   
H266     H      0.011580000000     0.634580000000     0.268360000000     0.0572758  
H267     H      0.007650000000     0.727290000000     0.361140000000     0.0615178  
H268     H      0.967250000000     0.738680000000     0.186580000000     0.042042   
H269     H      0.005150000000     0.674930000000     0.412760000000     0.0420738  
H270     H      0.991890000000     0.320930000000     0.412920000000     0.0186672  
H271     H      0.991310000000     0.174220000000     0.083530000000     0.0140131  
H272     H      0.945940000000     0.240100000000     0.309140000000     0.0408539  
H273     H      0.032280000000     0.257060000000     0.186520000000     0.0356724  
H274     H      0.989210000000     0.226960000000     0.134490000000     0.0620154  
H275     H      0.032510000000     0.309610000000     0.238820000000     0.0392601  
H276     H      0.989630000000     0.135570000000     0.228420000000     0.119327   
H277     H      0.990360000000     0.268790000000     0.361010000000     0.0554212  
H278     H      0.989430000000     0.361880000000     0.268550000000     0.0534073  
H279     H      0.945670000000     0.187540000000     0.256790000000     0.0401048  
H280     H      0.991660000000     0.413380000000     0.321020000000     0.0182179  
N1       N      0.493220000000     0.124340000000     0.370150000000    -0.269467   
N2       N      0.499800000000     0.370750000000     0.125020000000    -0.217686   
N3       N      0.491710000000     0.624340000000     0.126800000000    -0.264563   
N4       N      0.504530000000     0.871010000000     0.370670000000    -0.217413   
N5       N      0.500040000000     0.625950000000     0.871850000000    -0.259908   
N6       N      0.495200000000     0.871200000000     0.625460000000    -0.213184   
N7       N      0.490380000000     0.370500000000     0.871050000000    -0.262475   
N8       N      0.503220000000     0.126410000000     0.624320000000    -0.216445   
N9       N      0.870110000000     0.370310000000     0.491480000000    -0.265124   
N10      N      0.624150000000     0.125110000000     0.500760000000    -0.218656   
N11      N      0.625770000000     0.871750000000     0.491410000000    -0.265147   
N12      N      0.869940000000     0.624850000000     0.499750000000    -0.212834   
N13      N      0.124770000000     0.371340000000     0.500750000000    -0.268503   
N14      N      0.369780000000     0.125110000000     0.490640000000    -0.217366   
N15      N      0.124740000000     0.625300000000     0.490980000000    -0.26396    
N16      N      0.370850000000     0.870320000000     0.499830000000    -0.215094   
N17      N      0.870070000000     0.488330000000     0.370810000000    -0.265115   
N18      N      0.624210000000     0.487600000000     0.125550000000    -0.21641    
N19      N      0.124440000000     0.503490000000     0.371240000000    -0.267985   
N20      N      0.369870000000     0.503560000000     0.124890000000    -0.216653   
N21      N      0.369980000000     0.489760000000     0.870860000000    -0.264301   
N22      N      0.124760000000     0.489150000000     0.625030000000    -0.213999   
N23      N      0.624200000000     0.501140000000     0.870790000000    -0.263497   
N24      N      0.870510000000     0.501210000000     0.625600000000    -0.211496   
N25      N      0.870690000000     0.870250000000     0.993500000000    -0.262564   
N26      N      0.624750000000     0.624590000000     0.994960000000    -0.212522   
N27      N      0.623120000000     0.369360000000     0.007370000000    -0.264775   
N28      N      0.870450000000     0.125550000000     0.007480000000    -0.216433   
N29      N      0.370580000000     0.625960000000     0.007850000000    -0.264311   
N30      N      0.124960000000     0.871410000000     0.007250000000    -0.214057   
N31      N      0.369130000000     0.371970000000     0.992700000000    -0.266469   
N32      N      0.124220000000     0.125140000000     0.993890000000    -0.219776   
N33      N      0.870820000000     0.997380000000     0.870120000000    -0.265036   
N34      N      0.624690000000     0.006190000000     0.625190000000    -0.214766   
N35      N      0.370430000000     0.996550000000     0.625650000000    -0.264072   
N36      N      0.125100000000     0.005750000000     0.871380000000    -0.214289   
N37      N      0.123720000000     0.994580000000     0.125830000000    -0.268199   
N38      N      0.370580000000     0.004020000000     0.370220000000    -0.214659   
N39      N      0.624710000000     0.994820000000     0.371430000000    -0.266902   
N40      N      0.869800000000     0.003870000000     0.125280000000    -0.213827   
N41      N      0.007150000000     0.126090000000     0.871600000000    -0.264641   
N42      N      0.007000000000     0.370880000000     0.625400000000    -0.216359   
N43      N      0.993710000000     0.625040000000     0.625570000000    -0.262686   
N44      N      0.994400000000     0.871750000000     0.870320000000    -0.210487   
N45      N      0.006390000000     0.870310000000     0.124930000000    -0.262193   
N46      N      0.006140000000     0.624850000000     0.370650000000    -0.214753   
N47      N      0.991530000000     0.124330000000     0.125980000000    -0.26749    
N48      N      0.992120000000     0.371180000000     0.371040000000    -0.219995   
O1       O      0.994300000000     0.107030000000     0.056970000000    -0.625717   
O2       O      0.001150000000     0.888660000000     0.056350000000    -0.514977   
O3       O      0.938730000000     0.002300000000     0.107990000000    -0.590099   
O4       O      0.054870000000     0.995380000000     0.107660000000    -0.576771   
O5       O      0.106360000000     0.995880000000     0.056830000000    -0.627096   
O6       O      0.887720000000     0.000640000000     0.056590000000    -0.561948   
O7       O      0.002720000000     0.939350000000     0.107860000000    -0.593051   
O8       O      0.993910000000     0.055500000000     0.107740000000    -0.576554   
O9       O      0.037520000000     0.958460000000     0.038270000000    -1.46113    
O10      O      0.957510000000     0.037990000000     0.038320000000    -1.45602    
O11      O      0.951100000000     0.951600000000     0.039450000000    -1.04974    
O12      O      0.038860000000     0.039730000000     0.040310000000    -1.61887    
O13      O      0.996280000000     0.888960000000     0.939250000000    -0.548353   
O14      O      0.003040000000     0.108410000000     0.940510000000    -0.608071   
O15      O      0.887990000000     0.939330000000     0.995710000000    -0.565321   
O16      O      0.107460000000     0.940220000000     0.004110000000    -0.605601   
O17      O      0.106640000000     0.056360000000     0.996010000000    -0.624165   
O18      O      0.888010000000     0.056880000000     0.002000000000    -0.559843   
O19      O      0.939630000000     0.997800000000     0.888410000000    -0.51848    
O20      O      0.056500000000     0.001900000000     0.889100000000    -0.549387   
O21      O      0.888090000000     0.997390000000     0.939200000000    -0.567531   
O22      O      0.107670000000     0.003470000000     0.940350000000    -0.604263   
O23      O      0.939460000000     0.888490000000     0.995900000000    -0.517103   
O24      O      0.939220000000     0.108070000000     0.004030000000    -0.605874   
O25      O      0.055370000000     0.107560000000     0.996230000000    -0.621037   
O26      O      0.056370000000     0.888960000000     0.001550000000    -0.545101   
O27      O      0.996210000000     0.940480000000     0.888280000000    -0.550195   
O28      O      0.001720000000     0.057400000000     0.889300000000    -0.517507   
O29      O      0.037700000000     0.038560000000     0.958950000000    -1.45832    
O30      O      0.957910000000     0.958660000000     0.958100000000    -1.36473    
O31      O      0.951350000000     0.040080000000     0.952080000000    -1.05119    
O32      O      0.039440000000     0.952270000000     0.951950000000    -1.05502    
O33      O      0.994530000000     0.388630000000     0.439950000000    -0.623709   
O34      O      0.000980000000     0.607230000000     0.439300000000    -0.552407   
O35      O      0.939020000000     0.492270000000     0.388190000000    -0.613051   
O36      O      0.055480000000     0.500800000000     0.388830000000    -0.624468   
O37      O      0.106500000000     0.501050000000     0.440110000000    -0.587118   
O38      O      0.888080000000     0.493820000000     0.439490000000    -0.526252   
O39      O      0.002670000000     0.556040000000     0.388080000000    -0.605363   
O40      O      0.994610000000     0.439940000000     0.388760000000    -0.62513    
O41      O      0.037400000000     0.537600000000     0.457950000000    -1.47389    
O42      O      0.957780000000     0.457680000000     0.458050000000    -1.47109    
O43      O      0.951050000000     0.544020000000     0.456370000000    -1.06744    
O44      O      0.039060000000     0.456280000000     0.456320000000    -1.63724    
O45      O      0.995520000000     0.607450000000     0.556590000000    -0.557989   
O46      O      0.003340000000     0.387900000000     0.556380000000    -0.603756   
O47      O      0.887650000000     0.556040000000     0.499210000000    -0.556373   
O48      O      0.107210000000     0.556340000000     0.493120000000    -0.604238   
O49      O      0.106670000000     0.440190000000     0.500140000000    -0.587541   
O50      O      0.888180000000     0.439040000000     0.495190000000    -0.526614   
O51      O      0.939250000000     0.499260000000     0.607830000000    -0.553674   
O52      O      0.056190000000     0.494390000000     0.607400000000    -0.558818   
O53      O      0.887910000000     0.499450000000     0.556660000000    -0.555024   
O54      O      0.107330000000     0.492420000000     0.556170000000    -0.60058    
O55      O      0.938800000000     0.607380000000     0.499080000000    -0.560108   
O56      O      0.939150000000     0.387800000000     0.493360000000    -0.61251    
O57      O      0.055770000000     0.388780000000     0.500170000000    -0.626396   
O58      O      0.055950000000     0.607290000000     0.494920000000    -0.527896   
O59      O      0.995840000000     0.556170000000     0.607630000000    -0.526862   
O60      O      0.001330000000     0.439260000000     0.607420000000    -0.563966   
O61      O      0.037600000000     0.457820000000     0.537690000000    -1.47563    
O62      O      0.957640000000     0.537520000000     0.537890000000    -1.37715    
O63      O      0.951320000000     0.456090000000     0.544380000000    -1.0665     
O64      O      0.039010000000     0.544190000000     0.544310000000    -1.05195    
O65      O      0.606640000000     0.995980000000     0.440270000000    -0.577813   
O66      O      0.388150000000     0.000710000000     0.439020000000    -0.563664   
O67      O      0.502840000000     0.939810000000     0.388130000000    -0.609127   
O68      O      0.494730000000     0.055580000000     0.388480000000    -0.588259   
O69      O      0.494510000000     0.107120000000     0.439230000000    -0.635368   
O70      O      0.501030000000     0.888700000000     0.439410000000    -0.572928   
O71      O      0.439410000000     0.002580000000     0.387880000000    -0.593716   
O72      O      0.555710000000     0.995560000000     0.388900000000    -0.620129   
O73      O      0.457610000000     0.038060000000     0.457650000000    -1.46738    
O74      O      0.537810000000     0.958460000000     0.458010000000    -1.4731     
O75      O      0.451460000000     0.951640000000     0.456440000000    -1.05986    
O76      O      0.538960000000     0.039870000000     0.456160000000    -1.64412    
O77      O      0.387890000000     0.996790000000     0.556570000000    -0.566139   
O78      O      0.607290000000     0.003910000000     0.556280000000    -0.594343   
O79      O      0.439570000000     0.888280000000     0.499420000000    -0.567834   
O80      O      0.438750000000     0.107950000000     0.492460000000    -0.613748   
O81      O      0.555210000000     0.107640000000     0.499900000000    -0.629638   
O82      O      0.556860000000     0.889140000000     0.495110000000    -0.576591   
O83      O      0.496210000000     0.940090000000     0.607780000000    -0.550251   
O84      O      0.500150000000     0.057560000000     0.607010000000    -0.556615   
O85      O      0.496400000000     0.888720000000     0.556620000000    -0.568107   
O86      O      0.501960000000     0.108530000000     0.555560000000    -0.61622    
O87      O      0.388080000000     0.939280000000     0.499290000000    -0.562924   
O88      O      0.607590000000     0.940590000000     0.493190000000    -0.561848   
O89      O      0.606440000000     0.056410000000     0.500320000000    -0.612794   
O90      O      0.387810000000     0.056500000000     0.494450000000    -0.565449   
O91      O      0.439220000000     0.997190000000     0.607570000000    -0.528752   
O92      O      0.556060000000     0.002120000000     0.607420000000    -0.563697   
O93      O      0.537330000000     0.038750000000     0.537580000000    -1.47208    
O94      O      0.457890000000     0.958420000000     0.537850000000    -1.36704    
O95      O      0.539210000000     0.952290000000     0.544410000000    -1.06455    
O96      O      0.451060000000     0.039850000000     0.543940000000    -1.0477     
O97      O      0.387410000000     0.440770000000     0.995330000000    -0.58678    
O98      O      0.605860000000     0.438160000000     0.001980000000    -0.568222   
O99      O      0.491560000000     0.388180000000     0.940030000000    -0.566164   
O100     O      0.498560000000     0.388460000000     0.056170000000    -0.608466   
O101     O      0.498950000000     0.439550000000     0.107550000000    -0.630857   
O102     O      0.494000000000     0.439290000000     0.888940000000    -0.554926   
O103     O      0.554290000000     0.387520000000     0.003850000000    -0.56009    
O104     O      0.438130000000     0.389210000000     0.995090000000    -0.614707   
O105     O      0.536380000000     0.457420000000     0.038440000000    -1.47497    
O106     O      0.456690000000     0.458230000000     0.958560000000    -1.47896    
O107     O      0.543060000000     0.456010000000     0.952090000000    -1.06355    
O108     O      0.454970000000     0.456400000000     0.039940000000    -1.64192    
O109     O      0.607070000000     0.555690000000     0.996970000000    -0.561183   
O110     O      0.387500000000     0.556920000000     0.003900000000    -0.605196   
O111     O      0.555360000000     0.499650000000     0.888820000000    -0.528922   
O112     O      0.555270000000     0.491440000000     0.108360000000    -0.603781   
O113     O      0.438810000000     0.500820000000     0.107590000000    -0.616233   
O114     O      0.438560000000     0.494700000000     0.889060000000    -0.5351     
O115     O      0.498930000000     0.607660000000     0.940680000000    -0.518279   
O116     O      0.494960000000     0.606860000000     0.057900000000    -0.557422   
O117     O      0.498640000000     0.556870000000     0.889130000000    -0.550082   
O118     O      0.492620000000     0.555490000000     0.108720000000    -0.580324   
O119     O      0.606680000000     0.498850000000     0.939810000000    -0.566737   
O120     O      0.387180000000     0.493370000000     0.939910000000    -0.599572   
O121     O      0.387720000000     0.501230000000     0.056180000000    -0.613329   
O122     O      0.606400000000     0.493260000000     0.057060000000    -0.567439   
O123     O      0.555990000000     0.607110000000     0.997150000000    -0.552397   
O124     O      0.439130000000     0.607500000000     0.002770000000    -0.520697   
O125     O      0.457180000000     0.537650000000     0.038740000000    -1.47606    
O126     O      0.537020000000     0.537500000000     0.958910000000    -1.37859    
O127     O      0.455740000000     0.544570000000     0.952350000000    -1.07194    
O128     O      0.543640000000     0.543540000000     0.040330000000    -1.05245    


