data_structure

_audit_creation_method RASPA-1.0
_audit_creation_date 2023-5-19
_audit_author_name 'Poobodin Mano'

_cell_length_a    32.8809
_cell_length_b    32.8385
_cell_length_c    32.8374
_cell_angle_alpha 90
_cell_angle_beta  90
_cell_angle_gamma 90
_cell_volume      35456.5

_symmetry_cell_setting          triclinic
_symmetry_space_group_name_Hall 'P 1'
_symmetry_space_group_name_H-M  'P 1'
_symmetry_Int_Tables_number     1

_symmetry_equiv_pos_as_xyz 'x,y,z'

loop_
_atom_site_label
_atom_site_type_symbol
_atom_site_fract_x
_atom_site_fract_y
_atom_site_fract_z
_atom_site_charge
C1       C      0.997010000000     0.094460000000     0.099520000000     0.528627   
C2       C      0.003950000000     0.898950000000     0.093710000000     0.513105   
C3       C      0.900620000000     0.004590000000     0.098900000000     0.514136   
C4       C      0.095570000000     0.993390000000     0.095020000000     0.517589   
C5       C      0.992960000000     0.906410000000     0.897370000000     0.511379   
C6       C      0.995080000000     0.102440000000     0.906820000000     0.529862   
C7       C      0.898530000000     0.903100000000     0.995210000000     0.498821   
C8       C      0.094300000000     0.901290000000     0.996480000000     0.520743   
C9       C      0.095400000000     0.095670000000     0.999750000000     0.532103   
C10      C      0.902590000000     0.100240000000     0.002790000000     0.536686   
C11      C      0.897750000000     0.999330000000     0.902900000000     0.510455   
C12      C      0.093140000000     0.010370000000     0.900050000000     0.512743   
C13      C      0.991950000000     0.398450000000     0.405410000000     0.506482   
C14      C      0.004370000000     0.593350000000     0.399200000000     0.51257    
C15      C      0.899550000000     0.492330000000     0.401890000000     0.5126     
C16      C      0.093580000000     0.496570000000     0.401480000000     0.512852   
C17      C      0.996650000000     0.598840000000     0.594760000000     0.500335   
C18      C      0.002320000000     0.403140000000     0.600260000000     0.51171    
C19      C      0.900480000000     0.597250000000     0.498640000000     0.509354   
C20      C      0.095890000000     0.595090000000     0.491130000000     0.523535   
C21      C      0.093520000000     0.400170000000     0.504990000000     0.508565   
C22      C      0.899030000000     0.400570000000     0.498990000000     0.518493   
C23      C      0.900130000000     0.503280000000     0.598140000000     0.509525   
C24      C      0.096350000000     0.496330000000     0.596530000000     0.520256   
C25      C      0.595630000000     0.992510000000     0.404600000000     0.504702   
C26      C      0.400630000000     0.995430000000     0.399240000000     0.515619   
C27      C      0.504430000000     0.897490000000     0.405350000000     0.513398   
C28      C      0.494240000000     0.091670000000     0.398260000000     0.524344   
C29      C      0.395930000000     0.999180000000     0.595020000000     0.513925   
C30      C      0.591790000000     0.009740000000     0.599140000000     0.519176   
C31      C      0.399380000000     0.900050000000     0.504130000000     0.503659   
C32      C      0.397800000000     0.095510000000     0.488200000000     0.522624   
C33      C      0.592180000000     0.097080000000     0.500860000000     0.507502   
C34      C      0.594960000000     0.901660000000     0.500350000000     0.511095   
C35      C      0.493950000000     0.904580000000     0.601280000000     0.505916   
C36      C      0.496620000000     0.100340000000     0.592990000000     0.527808   
C37      C      0.401030000000     0.399390000000     0.001630000000     0.506881   
C38      C      0.398340000000     0.594860000000     0.998560000000     0.509213   
C39      C      0.399260000000     0.489220000000     0.097750000000     0.519043   
C40      C      0.398960000000     0.502410000000     0.903710000000     0.509252   
C41      C      0.593800000000     0.597230000000     0.004480000000     0.50892    
C42      C      0.596130000000     0.401430000000     0.990610000000     0.511297   
C43      C      0.499540000000     0.591800000000     0.101590000000     0.512434   
C44      C      0.490700000000     0.598490000000     0.904860000000     0.520029   
C45      C      0.502210000000     0.404070000000     0.899640000000     0.51125    
C46      C      0.494810000000     0.396250000000     0.094150000000     0.520081   
C47      C      0.596070000000     0.496550000000     0.096620000000     0.516107   
C48      C      0.593360000000     0.495980000000     0.900800000000     0.516469   
C49      C      0.487640000000     0.138870000000     0.296660000000    -0.127573   
C50      C      0.499670000000     0.374830000000     0.163310000000     0.104133   
C51      C      0.491010000000     0.325720000000     0.111120000000     0.0951086  
C52      C      0.501410000000     0.344280000000     0.192660000000    -0.0965587  
C53      C      0.529410000000     0.270780000000     0.242040000000    -0.0343012  
C54      C      0.529970000000     0.240630000000     0.272020000000    -0.0299526  
C55      C      0.498970000000     0.270950000000     0.212040000000    -0.00583881 
C56      C      0.492050000000     0.294360000000     0.139820000000    -0.102937   
C57      C      0.499830000000     0.210260000000     0.272820000000    -0.0116598  
C58      C      0.509080000000     0.188790000000     0.345580000000    -0.10859    
C59      C      0.469410000000     0.210560000000     0.242650000000    -0.0296191  
C60      C      0.506610000000     0.159230000000     0.375980000000     0.101038   
C61      C      0.483980000000     0.110100000000     0.327890000000     0.180788   
C62      C      0.469160000000     0.240410000000     0.212430000000    -0.0336575  
C63      C      0.497640000000     0.303550000000     0.181040000000     0.0600746  
C64      C      0.499540000000     0.178790000000     0.305330000000     0.0725281  
C65      C      0.507960000000     0.639690000000     0.203040000000    -0.125644   
C66      C      0.504500000000     0.876720000000     0.335920000000     0.0916469  
C67      C      0.507800000000     0.826960000000     0.388180000000     0.0890998  
C68      C      0.503460000000     0.846380000000     0.306260000000    -0.104785   
C69      C      0.473320000000     0.774610000000     0.255550000000    -0.0346123  
C70      C      0.471760000000     0.744330000000     0.225730000000    -0.0311367  
C71      C      0.502710000000     0.773030000000     0.286550000000    -0.00797112 
C72      C      0.507400000000     0.795820000000     0.359190000000    -0.103783   
C73      C      0.499860000000     0.712050000000     0.226010000000    -0.0111499  
C74      C      0.490240000000     0.690210000000     0.153340000000    -0.106797   
C75      C      0.529320000000     0.710650000000     0.257120000000    -0.0306889  
C76      C      0.490860000000     0.660140000000     0.123360000000     0.101153   
C77      C      0.509740000000     0.610230000000     0.172250000000     0.182333   
C78      C      0.530520000000     0.740660000000     0.287220000000    -0.0340306  
C79      C      0.504630000000     0.805440000000     0.317770000000     0.0577796  
C80      C      0.498860000000     0.680210000000     0.193800000000     0.0719873  
C81      C      0.487610000000     0.652800000000     0.806180000000    -0.126374   
C82      C      0.494940000000     0.888030000000     0.672070000000     0.0970855  
C83      C      0.489980000000     0.835410000000     0.622970000000     0.0912116  
C84      C      0.492440000000     0.859600000000     0.703630000000    -0.0966738  
C85      C      0.508460000000     0.791140000000     0.763750000000    -0.0338558  
C86      C      0.506740000000     0.761200000000     0.794000000000    -0.0308174  
C87      C      0.485420000000     0.787220000000     0.727830000000    -0.00589549 
C88      C      0.487710000000     0.806180000000     0.653750000000    -0.101308   
C89      C      0.482210000000     0.726560000000     0.788870000000    -0.0117384  
C90      C      0.481680000000     0.700850000000     0.860870000000    -0.107986   
C91      C      0.458490000000     0.723040000000     0.753470000000    -0.0314084  
C92      C      0.484300000000     0.668720000000     0.888620000000     0.094197   
C93      C      0.491440000000     0.621120000000     0.834500000000     0.179179   
C94      C      0.459930000000     0.753080000000     0.723400000000    -0.0336953  
C95      C      0.488490000000     0.818070000000     0.694730000000     0.0577239  
C96      C      0.483160000000     0.693020000000     0.819130000000     0.0706417  
C97      C      0.479380000000     0.157000000000     0.687750000000    -0.124203   
C98      C      0.495280000000     0.385440000000     0.829900000000     0.0870259  
C99      C      0.517690000000     0.336720000000     0.878110000000     0.0887121  
C100     C      0.496570000000     0.356250000000     0.798990000000    -0.102584   
C101     C      0.515430000000     0.294470000000     0.733840000000    -0.0340907  
C102     C      0.513580000000     0.264590000000     0.703550000000    -0.0313081  
C103     C      0.509950000000     0.284280000000     0.775160000000    -0.00714494 
C104     C      0.520820000000     0.307230000000     0.847710000000    -0.103546   
C105     C      0.507410000000     0.223400000000     0.713690000000    -0.0101657  
C106     C      0.523620000000     0.195290000000     0.643840000000    -0.107381   
C107     C      0.503590000000     0.213080000000     0.755110000000    -0.0311392  
C108     C      0.519100000000     0.165250000000     0.614100000000     0.101549   
C109     C      0.475830000000     0.126920000000     0.657730000000     0.18943    
C110     C      0.504050000000     0.243030000000     0.785210000000    -0.0334105  
C111     C      0.509440000000     0.316360000000     0.807520000000     0.0556999  
C112     C      0.503820000000     0.191420000000     0.681460000000     0.0729001  
C113     C      0.847310000000     0.300680000000     0.503750000000    -0.126435   
C114     C      0.610400000000     0.167340000000     0.497620000000     0.0862019  
C115     C      0.661810000000     0.117160000000     0.504170000000     0.0871805  
C116     C      0.639690000000     0.198150000000     0.497000000000    -0.10344    
C117     C      0.710650000000     0.252920000000     0.471920000000    -0.0353539  
C118     C      0.741050000000     0.282750000000     0.471170000000    -0.0320532  
C119     C      0.712570000000     0.220570000000     0.499920000000    -0.00797229 
C120     C      0.691830000000     0.147230000000     0.503960000000    -0.10379    
C121     C      0.773920000000     0.280930000000     0.498510000000    -0.012322   
C122     C      0.798190000000     0.353260000000     0.491570000000    -0.109279   
C123     C      0.775340000000     0.248900000000     0.526940000000    -0.0317513  
C124     C      0.829500000000     0.382000000000     0.492440000000     0.0925563  
C125     C      0.878150000000     0.330050000000     0.505520000000     0.178405   
C126     C      0.745150000000     0.219030000000     0.527530000000    -0.0346807  
C127     C      0.680950000000     0.188280000000     0.500240000000     0.0558773  
C128     C      0.806850000000     0.312030000000     0.497440000000     0.0697217  
C129     C      0.850400000000     0.697810000000     0.492500000000    -0.125646   
C130     C      0.614220000000     0.831770000000     0.503790000000     0.0892951  
C131     C      0.664870000000     0.882630000000     0.496390000000     0.0898667  
C132     C      0.643890000000     0.801390000000     0.504340000000    -0.103919   
C133     C      0.715750000000     0.748090000000     0.529440000000    -0.0350271  
C134     C      0.745960000000     0.718120000000     0.529630000000    -0.0319212  
C135     C      0.716830000000     0.779870000000     0.500790000000    -0.00814758 
C136     C      0.695290000000     0.852950000000     0.496420000000    -0.104148   
C137     C      0.777740000000     0.719150000000     0.500990000000    -0.0120742  
C138     C      0.800870000000     0.646560000000     0.508280000000    -0.108941   
C139     C      0.778440000000     0.750790000000     0.472070000000    -0.0318301  
C140     C      0.831540000000     0.617190000000     0.506800000000     0.092701   
C141     C      0.880500000000     0.667730000000     0.490000000000     0.176991   
C142     C      0.748470000000     0.780890000000     0.472120000000    -0.0346313  
C143     C      0.684960000000     0.811810000000     0.500610000000     0.0571006  
C144     C      0.810090000000     0.687460000000     0.501090000000     0.0695982  
C145     C      0.346070000000     0.194910000000     0.480500000000    -0.126032   
C146     C      0.111950000000     0.330040000000     0.509300000000     0.0874585  
C147     C      0.163190000000     0.380340000000     0.502160000000     0.0882628  
C148     C      0.141230000000     0.299230000000     0.508430000000    -0.102688   
C149     C      0.214060000000     0.243990000000     0.527630000000    -0.0344622  
C150     C      0.244010000000     0.213880000000     0.524680000000    -0.0310221  
C151     C      0.213650000000     0.276920000000     0.500340000000    -0.00696289 
C152     C      0.193160000000     0.350290000000     0.500700000000    -0.101752   
C153     C      0.273960000000     0.215900000000     0.494130000000    -0.0115595  
C154     C      0.297610000000     0.143240000000     0.498250000000    -0.109267   
C155     C      0.273020000000     0.248620000000     0.466480000000    -0.0306391  
C156     C      0.328430000000     0.114140000000     0.495530000000     0.096077   
C157     C      0.376280000000     0.165020000000     0.476770000000     0.181525   
C158     C      0.243370000000     0.278870000000     0.469700000000    -0.0340008  
C159     C      0.182300000000     0.309200000000     0.503510000000     0.0565428  
C160     C      0.306300000000     0.184300000000     0.491250000000     0.0715226  
C161     C      0.195920000000     0.645310000000     0.484320000000    -0.12618    
C162     C      0.329650000000     0.880600000000     0.508060000000     0.0898415  
C163     C      0.380840000000     0.829910000000     0.503610000000     0.09011    
C164     C      0.299420000000     0.850770000000     0.508240000000    -0.10331    
C165     C      0.246040000000     0.777470000000     0.530970000000    -0.0348082  
C166     C      0.216140000000     0.747310000000     0.528740000000    -0.0308568  
C167     C      0.278490000000     0.777770000000     0.503180000000    -0.00772296 
C168     C      0.351360000000     0.799360000000     0.503130000000    -0.103678   
C169     C      0.217840000000     0.717130000000     0.498360000000    -0.0117628  
C170     C      0.145110000000     0.694350000000     0.503030000000    -0.109129   
C171     C      0.250230000000     0.717850000000     0.470350000000    -0.0308818  
C172     C      0.115600000000     0.664010000000     0.499980000000     0.0967513  
C173     C      0.165560000000     0.615680000000     0.480030000000     0.187823   
C174     C      0.280350000000     0.747660000000     0.472930000000    -0.0344122  
C175     C      0.310160000000     0.809690000000     0.505230000000     0.057672   
C176     C      0.185940000000     0.685120000000     0.495680000000     0.0723927  
C177     C      0.648200000000     0.485660000000     0.195280000000    -0.126178   
C178     C      0.881150000000     0.494810000000     0.331850000000     0.0920473  
C179     C      0.829800000000     0.489060000000     0.382140000000     0.0893395  
C180     C      0.851890000000     0.496620000000     0.301190000000    -0.104354   
C181     C      0.786010000000     0.479800000000     0.239800000000    -0.0344708  
C182     C      0.756490000000     0.482180000000     0.209320000000    -0.0320594  
C183     C      0.778920000000     0.496810000000     0.278540000000    -0.00789745 
C184     C      0.799690000000     0.490100000000     0.352110000000    -0.102724   
C185     C      0.719000000000     0.501010000000     0.217050000000    -0.0122905  
C186     C      0.694680000000     0.512830000000     0.145790000000    -0.10997    
C187     C      0.711740000000     0.518060000000     0.255560000000    -0.0317244  
C188     C      0.664030000000     0.510530000000     0.116470000000     0.0974732  
C189     C      0.618490000000     0.481940000000     0.164940000000     0.189897   
C190     C      0.741490000000     0.516300000000     0.285870000000    -0.0335836  
C191     C      0.810490000000     0.494400000000     0.311000000000     0.0572242  
C192     C      0.686670000000     0.500770000000     0.185750000000     0.0731379  
C193     C      0.347510000000     0.482990000000     0.197320000000    -0.126629   
C194     C      0.112160000000     0.501240000000     0.331500000000     0.0908879  
C195     C      0.162820000000     0.488970000000     0.381350000000     0.0965821  
C196     C      0.141520000000     0.501320000000     0.300790000000    -0.10303    
C197     C      0.206950000000     0.477420000000     0.240240000000    -0.0350012  
C198     C      0.237050000000     0.477220000000     0.210210000000    -0.0311321  
C199     C      0.214290000000     0.495530000000     0.278350000000    -0.00662347 
C200     C      0.192930000000     0.488740000000     0.351410000000    -0.0999572  
C201     C      0.275210000000     0.494980000000     0.217660000000    -0.0123863  
C202     C      0.299130000000     0.500220000000     0.145380000000    -0.111677   
C203     C      0.282470000000     0.513380000000     0.255600000000    -0.0306197  
C204     C      0.330040000000     0.497570000000     0.116420000000     0.096972   
C205     C      0.377860000000     0.479400000000     0.167550000000     0.181243   
C206     C      0.252330000000     0.513730000000     0.285570000000    -0.0337589  
C207     C      0.182530000000     0.495210000000     0.310550000000     0.0579843  
C208     C      0.307770000000     0.493310000000     0.186410000000     0.0718898  
C209     C      0.196570000000     0.501300000000     0.647260000000    -0.126514   
C210     C      0.328880000000     0.499880000000     0.885120000000     0.0867867  
C211     C      0.379350000000     0.505760000000     0.833900000000     0.0875353  
C212     C      0.298320000000     0.498950000000     0.855600000000    -0.10399    
C213     C      0.244520000000     0.472060000000     0.784690000000    -0.0349469  
C214     C      0.214930000000     0.470470000000     0.754120000000    -0.0315907  
C215     C      0.276530000000     0.500350000000     0.782440000000    -0.00744383 
C216     C      0.349540000000     0.505230000000     0.803650000000    -0.101619   
C217     C      0.216670000000     0.497240000000     0.720740000000    -0.0116876  
C218     C      0.144410000000     0.489880000000     0.697060000000    -0.108394   
C219     C      0.248450000000     0.525860000000     0.718880000000    -0.0309776  
C220     C      0.115480000000     0.490390000000     0.665950000000     0.0938495  
C221     C      0.166970000000     0.502730000000     0.616610000000     0.180283   
C222     C      0.278090000000     0.527290000000     0.749270000000    -0.0341241  
C223     C      0.308490000000     0.501540000000     0.814310000000     0.0560266  
C224     C      0.185510000000     0.495580000000     0.687950000000     0.0706842  
C225     C      0.848460000000     0.501880000000     0.698300000000    -0.125889   
C226     C      0.611630000000     0.492810000000     0.830590000000     0.0949867  
C227     C      0.663080000000     0.495660000000     0.881090000000     0.0909341  
C228     C      0.640950000000     0.493040000000     0.799840000000    -0.101281   
C229     C      0.710960000000     0.472580000000     0.742610000000    -0.0344586  
C230     C      0.741170000000     0.474120000000     0.712690000000    -0.0314902  
C231     C      0.713890000000     0.496880000000     0.777750000000    -0.00729489 
C232     C      0.693140000000     0.495920000000     0.851130000000    -0.103448   
C233     C      0.774940000000     0.499950000000     0.717360000000    -0.0123153  
C234     C      0.798780000000     0.501350000000     0.644860000000    -0.109834   
C235     C      0.777550000000     0.524600000000     0.752230000000    -0.0316418  
C236     C      0.830210000000     0.502850000000     0.616340000000     0.0932101  
C237     C      0.879550000000     0.503810000000     0.669230000000     0.17733    
C238     C      0.747400000000     0.523100000000     0.782060000000    -0.034114   
C239     C      0.682250000000     0.495040000000     0.809930000000     0.0580493  
C240     C      0.807750000000     0.500850000000     0.686370000000     0.070449   
C241     C      0.643840000000     0.698050000000     0.008430000000    -0.124772   
C242     C      0.879370000000     0.833190000000     0.990350000000     0.0887848  
C243     C      0.828540000000     0.883910000000     0.997230000000     0.0886621  
C244     C      0.849780000000     0.802660000000     0.990180000000    -0.0998123  
C245     C      0.778120000000     0.747440000000     0.968670000000    -0.0349974  
C246     C      0.748180000000     0.717190000000     0.970250000000    -0.0316303  
C247     C      0.776910000000     0.780720000000     0.995580000000    -0.0060845  
C248     C      0.798210000000     0.854100000000     0.997490000000    -0.0997275  
C249     C      0.716470000000     0.719440000000     0.998920000000    -0.010912   
C250     C      0.693670000000     0.646370000000     0.995380000000    -0.108222   
C251     C      0.715590000000     0.752590000000     0.026060000000    -0.0315976  
C252     C      0.663050000000     0.616970000000     0.997770000000     0.0932169  
C253     C      0.613750000000     0.667990000000     0.011720000000     0.177646   
C254     C      0.745330000000     0.782910000000     0.024300000000    -0.0346442  
C255     C      0.808670000000     0.812890000000     0.994140000000     0.0557926  
C256     C      0.684260000000     0.687550000000     0.000530000000     0.0688807  
C257     C      0.828980000000     0.170050000000     0.957980000000    -0.124066   
C258     C      0.616920000000     0.331850000000     0.986140000000     0.0902981  
C259     C      0.666480000000     0.384210000000     0.986820000000     0.0899482  
C260     C      0.647470000000     0.302190000000     0.985090000000    -0.102754   
C261     C      0.756210000000     0.288860000000     0.010700000000    -0.0341832  
C262     C      0.787000000000     0.259570000000     0.012370000000    -0.0315659  
C263     C      0.721550000000     0.282750000000     0.986340000000    -0.00692531 
C264     C      0.697700000000     0.355410000000     0.985700000000    -0.10273    
C265     C      0.783950000000     0.223310000000     0.989810000000    -0.0100023  
C266     C      0.834750000000     0.182770000000     0.030090000000    -0.106491   
C267     C      0.749470000000     0.217300000000     0.965150000000    -0.0306884  
C268     C      0.864390000000     0.152470000000     0.032480000000     0.109014   
C269     C      0.859070000000     0.139920000000     0.961250000000     0.187311   
C270     C      0.718630000000     0.246640000000     0.963470000000    -0.0334475  
C271     C      0.688500000000     0.313780000000     0.985350000000     0.0571126  
C272     C      0.816230000000     0.191600000000     0.992630000000     0.0734834  
C273     C      0.144420000000     0.801550000000     0.983760000000    -0.12455    
C274     C      0.378810000000     0.664610000000     0.003510000000     0.0884947  
C275     C      0.328590000000     0.614040000000     0.992220000000     0.0897668  
C276     C      0.349050000000     0.694950000000     0.004060000000    -0.102843   
C277     C      0.275250000000     0.746320000000     0.029130000000    -0.0351231  
C278     C      0.245160000000     0.776450000000     0.029170000000    -0.0312968  
C279     C      0.276310000000     0.716660000000     0.998320000000    -0.00707614 
C280     C      0.298130000000     0.643750000000     0.991970000000    -0.103244   
C281     C      0.215710000000     0.777890000000     0.998090000000    -0.0109222  
C282     C      0.192320000000     0.849960000000     0.010170000000    -0.10927    
C283     C      0.217190000000     0.748300000000     0.967050000000    -0.0307549  
C284     C      0.162130000000     0.879860000000     0.008720000000     0.0968053  
C285     C      0.115010000000     0.832380000000     0.981160000000     0.188301   
C286     C      0.246920000000     0.717900000000     0.967360000000    -0.0340972  
C287     C      0.308200000000     0.684700000000     0.998200000000     0.0572373  
C288     C      0.183670000000     0.810100000000     0.997840000000     0.0722552  
C289     C      0.162550000000     0.175250000000     0.038180000000    -0.122547   
C290     C      0.331120000000     0.379910000000     0.002740000000     0.0872824  
C291     C      0.382290000000     0.329140000000     0.003800000000     0.0867315  
C292     C      0.300800000000     0.350110000000     0.003500000000    -0.103306   
C293     C      0.284420000000     0.240400000000     0.982490000000    -0.0345572  
C294     C      0.254090000000     0.210560000000     0.982140000000    -0.0316004  
C295     C      0.279250000000     0.276630000000     0.004750000000    -0.00794333 
C296     C      0.352700000000     0.298550000000     0.004760000000    -0.102829   
C297     C      0.217640000000     0.216160000000     0.003900000000    -0.0113611  
C298     C      0.176990000000     0.162530000000     0.967310000000    -0.109194   
C299     C      0.212550000000     0.252270000000     0.026370000000    -0.0315195  
C300     C      0.147130000000     0.132350000000     0.967230000000     0.101869   
C301     C      0.132390000000     0.145060000000     0.037100000000     0.184125   
C302     C      0.242970000000     0.282070000000     0.026840000000    -0.0338905  
C303     C      0.311300000000     0.308780000000     0.004480000000     0.05574    
C304     C      0.185060000000     0.184550000000     0.003020000000     0.0704161  
C305     C      0.641320000000     0.015940000000     0.700020000000    -0.125793   
C306     C      0.878090000000     0.997660000000     0.833050000000     0.100599   
C307     C      0.827580000000     0.000230000000     0.884450000000     0.102455   
C308     C      0.848260000000     0.998510000000     0.802820000000    -0.100105   
C309     C      0.781220000000     0.025490000000     0.745870000000    -0.0331802  
C310     C      0.751120000000     0.027470000000     0.715910000000    -0.0307656  
C311     C      0.774970000000     0.002780000000     0.781670000000    -0.00401109 
C312     C      0.796970000000     0.001370000000     0.854980000000    -0.0991366  
C313     C      0.713960000000     0.007020000000     0.721130000000    -0.0101222  
C314     C      0.691720000000     0.005620000000     0.648220000000    -0.111065   
C315     C      0.707570000000     0.984440000000     0.756910000000    -0.0327691  
C316     C      0.661170000000     0.007300000000     0.618830000000     0.0954762  
C317     C      0.611170000000     0.018640000000     0.669880000000     0.178103   
C318     C      0.737780000000     0.982230000000     0.786780000000    -0.0352447  
C319     C      0.807090000000     0.000730000000     0.813540000000     0.0629803  
C320     C      0.681900000000     0.009280000000     0.689380000000     0.0707131  
C321     C      0.342860000000     0.999040000000     0.693900000000    -0.125958   
C322     C      0.110290000000     0.020740000000     0.830280000000     0.0940541  
C323     C      0.162590000000     0.011920000000     0.879120000000     0.0921256  
C324     C      0.139010000000     0.023440000000     0.799080000000    -0.0999403  
C325     C      0.203280000000     0.001320000000     0.737060000000    -0.0276936  
C326     C      0.232980000000     0.999860000000     0.706640000000    -0.0375056  
C327     C      0.211440000000     0.020050000000     0.774740000000    -0.00915111 
C328     C      0.192100000000     0.014160000000     0.848610000000    -0.10261    
C329     C      0.271630000000     0.016770000000     0.713320000000    -0.00813303 
C330     C      0.296360000000     0.018740000000     0.641070000000    -0.109225   
C331     C      0.279630000000     0.036170000000     0.750600000000    -0.0330131  
C332     C      0.327240000000     0.013010000000     0.612450000000     0.0989138  
C333     C      0.372980000000     0.992120000000     0.664490000000     0.188305   
C334     C      0.249820000000     0.037970000000     0.780890000000    -0.0319665  
C335     C      0.180510000000     0.019620000000     0.807890000000     0.0585858  
C336     C      0.304180000000     0.012280000000     0.682360000000     0.0741291  
C337     C      0.148450000000     0.996110000000     0.194190000000    -0.130837   
C338     C      0.383050000000     0.985430000000     0.329470000000     0.0998179  
C339     C      0.331250000000     0.997410000000     0.378180000000     0.090055   
C340     C      0.354120000000     0.982510000000     0.298470000000    -0.100589   
C341     C      0.288830000000     0.001820000000     0.236050000000    -0.0324637  
C342     C      0.258860000000     0.000890000000     0.205850000000    -0.0281132  
C343     C      0.281470000000     0.984840000000     0.274700000000    -0.00811754 
C344     C      0.301540000000     0.994820000000     0.347890000000    -0.100693   
C345     C      0.220760000000     0.983140000000     0.213660000000    -0.0147707  
C346     C      0.195690000000     0.977750000000     0.141580000000    -0.11089    
C347     C      0.213660000000     0.965450000000     0.251980000000    -0.0307952  
C348     C      0.164440000000     0.981290000000     0.112990000000     0.0986323  
C349     C      0.117810000000     0.000630000000     0.164860000000     0.18544    
C350     C      0.243670000000     0.966200000000     0.282100000000    -0.034473   
C351     C      0.312750000000     0.987280000000     0.307400000000     0.0583102  
C352     C      0.187810000000     0.984940000000     0.182760000000     0.0743926  
C353     C      0.801210000000     0.008560000000     0.151440000000    -0.122521   
C354     C      0.666050000000     0.989600000000     0.387020000000     0.0857162  
C355     C      0.616300000000     0.992180000000     0.334930000000     0.0861104  
C356     C      0.697150000000     0.989360000000     0.357980000000    -0.103395   
C357     C      0.756900000000     0.013640000000     0.291860000000    -0.0329542  
C358     C      0.787080000000     0.015590000000     0.261870000000    -0.0307587  
C359     C      0.720530000000     0.992080000000     0.284910000000    -0.00947709 
C360     C      0.646640000000     0.992310000000     0.305130000000    -0.102123   
C361     C      0.781510000000     0.996320000000     0.224070000000    -0.0131269  
C362     C      0.854070000000     0.995590000000     0.200060000000    -0.108405   
C363     C      0.745430000000     0.974430000000     0.217220000000    -0.0322454  
C364     C      0.882730000000     0.998610000000     0.168790000000     0.0903624  
C365     C      0.830570000000     0.012710000000     0.120690000000     0.175166   
C366     C      0.715420000000     0.972170000000     0.247290000000    -0.0339001  
C367     C      0.687760000000     0.991040000000     0.316380000000     0.0553115  
C368     C      0.812700000000     0.999830000000     0.191440000000     0.0666316  
C369     C      0.957730000000     0.174780000000     0.830140000000    -0.117343   
C370     C      0.007890000000     0.333930000000     0.621730000000     0.0992914  
C371     C      0.998950000000     0.386150000000     0.670760000000     0.088775   
C372     C      0.007320000000     0.304380000000     0.652360000000    -0.105722   
C373     C      0.028550000000     0.253420000000     0.727620000000    -0.0241583  
C374     C      0.026840000000     0.224390000000     0.758700000000    -0.0287497  
C375     C      0.999760000000     0.284970000000     0.725820000000    -0.0234809  
C376     C      0.997700000000     0.357370000000     0.702030000000    -0.110729   
C377     C      0.996000000000     0.225990000000     0.788290000000    -0.0141827  
C378     C      0.029150000000     0.184830000000     0.842790000000    -0.102505   
C379     C      0.967010000000     0.257350000000     0.786340000000    -0.0336095  
C380     C      0.027620000000     0.154510000000     0.872250000000     0.1048     
C381     C      0.956550000000     0.143250000000     0.859740000000     0.17989    
C382     C      0.969030000000     0.286720000000     0.755560000000    -0.0283023  
C383     C      0.001700000000     0.315950000000     0.693000000000     0.0749748  
C384     C      0.994190000000     0.194860000000     0.820980000000     0.0637839  
C385     C      0.993900000000     0.858140000000     0.795510000000    -0.12453    
C386     C      0.998080000000     0.619840000000     0.664250000000     0.0846646  
C387     C      0.993010000000     0.669350000000     0.611960000000     0.088826   
C388     C      0.996130000000     0.650150000000     0.693950000000    -0.0971256  
C389     C      0.965110000000     0.719980000000     0.747340000000    -0.0341358  
C390     C      0.963910000000     0.750510000000     0.776990000000    -0.0299368  
C391     C      0.991140000000     0.723510000000     0.713600000000    -0.0120252  
C392     C      0.991570000000     0.700490000000     0.640900000000    -0.100678   
C393     C      0.989080000000     0.785010000000     0.773780000000    -0.017059   
C394     C      0.984580000000     0.807140000000     0.846910000000    -0.106205   
C395     C      0.015210000000     0.788310000000     0.739960000000    -0.024145   
C396     C      0.986000000000     0.837540000000     0.876550000000     0.0995825  
C397     C      0.996540000000     0.888070000000     0.825820000000     0.174938   
C398     C      0.016000000000     0.758050000000     0.710090000000    -0.0283065  
C399     C      0.992780000000     0.690980000000     0.682410000000     0.0567523  
C400     C      0.988670000000     0.817170000000     0.805770000000     0.0715752  
C401     C      0.009890000000     0.797240000000     0.142080000000    -0.123641   
C402     C      0.007430000000     0.611330000000     0.328790000000     0.0922502  
C403     C      0.009290000000     0.662940000000     0.379150000000     0.095903   
C404     C      0.008570000000     0.640700000000     0.297960000000    -0.100646   
C405     C      0.985690000000     0.709230000000     0.240250000000    -0.0397667  
C406     C      0.984880000000     0.739510000000     0.210330000000    -0.0378244  
C407     C      0.009360000000     0.714100000000     0.275620000000    -0.000367546
C408     C      0.010230000000     0.693030000000     0.349150000000    -0.0980174  
C409     C      0.007510000000     0.775510000000     0.215140000000    -0.00513805 
C410     C      0.004230000000     0.848720000000     0.193540000000    -0.107452   
C411     C      0.031190000000     0.780430000000     0.250410000000    -0.032126   
C412     C      0.004050000000     0.878380000000     0.163090000000     0.0951164  
C413     C      0.010720000000     0.827580000000     0.112010000000     0.177941   
C414     C      0.032220000000     0.750040000000     0.280220000000    -0.0346286  
C415     C      0.009570000000     0.682210000000     0.307910000000     0.0566616  
C416     C      0.006820000000     0.807580000000     0.183200000000     0.0689805  
C417     C      0.004280000000     0.193320000000     0.152510000000    -0.120542   
C418     C      0.987430000000     0.328000000000     0.388130000000     0.0866415  
C419     C      0.992970000000     0.377570000000     0.335920000000     0.0866752  
C420     C      0.987250000000     0.296770000000     0.359210000000    -0.102564   
C421     C      0.964890000000     0.240930000000     0.287410000000    -0.0336008  
C422     C      0.966030000000     0.210950000000     0.257140000000    -0.0313595  
C423     C      0.992500000000     0.273570000000     0.286640000000    -0.0141203  
C424     C      0.993340000000     0.347120000000     0.306310000000    -0.10553    
C425     C      0.995040000000     0.212860000000     0.225680000000    -0.0158407  
C426     C      0.988520000000     0.140720000000     0.200740000000    -0.106044   
C427     C      0.023230000000     0.245100000000     0.225640000000    -0.0259057  
C428     C      0.989740000000     0.112220000000     0.169190000000     0.10145    
C429     C      0.006400000000     0.164160000000     0.121510000000     0.192862   
C430     C      0.021820000000     0.275180000000     0.255610000000    -0.0278465  
C431     C      0.990750000000     0.306180000000     0.317810000000     0.0572105  
C432     C      0.995670000000     0.181880000000     0.192600000000     0.0675174  
Eu1      Eu     0.997310000000     0.996980000000     0.071290000000     3.39309    
Eu2      Eu     0.996420000000     0.927700000000     0.996480000000     3.04607    
Eu3      Eu     0.997530000000     0.071950000000     0.001570000000     3.65602    
Eu4      Eu     0.924340000000     0.000920000000     0.000270000000     3.05802    
Eu5      Eu     0.069260000000     0.998760000000     0.997230000000     3.48191    
Eu6      Eu     0.995850000000     0.003020000000     0.926630000000     3.04299    
Eu7      Eu     0.996280000000     0.497090000000     0.427670000000     3.46377    
Eu8      Eu     0.998000000000     0.570780000000     0.497740000000     3.03149    
Eu9      Eu     0.996080000000     0.426340000000     0.502400000000     3.46968    
Eu10     Eu     0.924630000000     0.498920000000     0.500010000000     3.05169    
Eu11     Eu     0.069360000000     0.498140000000     0.499680000000     3.54923    
Eu12     Eu     0.997930000000     0.500260000000     0.572290000000     3.03344    
Eu13     Eu     0.497150000000     0.994980000000     0.427610000000     3.50991    
Eu14     Eu     0.423640000000     0.997890000000     0.497860000000     3.0252     
Eu15     Eu     0.568170000000     0.998720000000     0.501780000000     3.46324    
Eu16     Eu     0.496910000000     0.925940000000     0.502460000000     3.06465    
Eu17     Eu     0.494950000000     0.070610000000     0.497140000000     3.5111     
Eu18     Eu     0.494480000000     0.001410000000     0.572080000000     3.09531    
Eu19     Eu     0.425150000000     0.497640000000     0.001100000000     3.4781     
Eu20     Eu     0.496310000000     0.570480000000     0.002360000000     3.04058    
Eu21     Eu     0.498710000000     0.425710000000     0.998250000000     3.49716    
Eu22     Eu     0.497630000000     0.495250000000     0.072540000000     3.07272    
Eu23     Eu     0.496920000000     0.500750000000     0.928010000000     3.53052    
Eu24     Eu     0.569690000000     0.498910000000     0.999300000000     3.07331    
H1       H      0.959690000000     0.960270000000     0.065840000000    -0.160209   
H2       H      0.057570000000     0.056000000000     0.059710000000     0.437373   
H3       H      0.961150000000     0.067450000000     0.965920000000    -0.268359   
H4       H      0.063340000000     0.963560000000     0.958530000000    -0.179057   
H5       H      0.959730000000     0.534810000000     0.431580000000    -0.173216   
H6       H      0.055030000000     0.436850000000     0.441950000000     0.415307   
H7       H      0.959340000000     0.432440000000     0.539620000000    -0.173194   
H8       H      0.065140000000     0.536340000000     0.535590000000    -0.188693   
H9       H      0.460760000000     0.957730000000     0.433370000000    -0.188374   
H10      H      0.555920000000     0.055640000000     0.439420000000     0.414696   
H11      H      0.563000000000     0.963150000000     0.540370000000    -0.16991    
H12      H      0.456980000000     0.066850000000     0.533270000000    -0.184611   
H13      H      0.429870000000     0.533580000000     0.039290000000    -0.177028   
H14      H      0.438480000000     0.439650000000     0.939630000000     0.412921   
H15      H      0.536100000000     0.429870000000     0.035000000000    -0.178113   
H16      H      0.533680000000     0.537970000000     0.933590000000    -0.183452   
H17      H      0.486920000000     0.317230000000     0.079480000000     0.0208771  
H18      H      0.515160000000     0.168420000000     0.406520000000     0.0248117  
H19      H      0.445030000000     0.240230000000     0.189960000000     0.041848   
H20      H      0.554150000000     0.240980000000     0.294410000000     0.0380132  
H21      H      0.517830000000     0.219480000000     0.353870000000     0.0620126  
H22      H      0.552980000000     0.293850000000     0.242120000000     0.0433953  
H23      H      0.479430000000     0.130270000000     0.265890000000     0.0794502  
H24      H      0.489080000000     0.263090000000     0.129730000000     0.0570095  
H25      H      0.505160000000     0.352580000000     0.224370000000     0.0681946  
H26      H      0.445180000000     0.188240000000     0.242810000000     0.0430179  
H27      H      0.502560000000     0.405930000000     0.173910000000     0.0560367  
H28      H      0.509370000000     0.818180000000     0.419960000000     0.0203919  
H29      H      0.483000000000     0.669570000000     0.092710000000     0.0314028  
H30      H      0.553790000000     0.739040000000     0.310530000000     0.0400865  
H31      H      0.448270000000     0.746070000000     0.202680000000     0.0382258  
H32      H      0.483510000000     0.721280000000     0.144560000000     0.0615107  
H33      H      0.451230000000     0.799070000000     0.254660000000     0.0393397  
H34      H      0.515010000000     0.630880000000     0.234040000000     0.0808985  
H35      H      0.508350000000     0.764390000000     0.369200000000     0.0565548  
H36      H      0.501910000000     0.854970000000     0.274440000000     0.0575463  
H37      H      0.552020000000     0.686780000000     0.257870000000     0.0422092  
H38      H      0.503260000000     0.908000000000     0.325450000000     0.023781   
H39      H      0.488840000000     0.824620000000     0.591790000000     0.0212664  
H40      H      0.482220000000     0.676600000000     0.920610000000     0.0282548  
H41      H      0.441050000000     0.749480000000     0.696630000000     0.0405486  
H42      H      0.525730000000     0.764470000000     0.820760000000     0.0411653  
H43      H      0.478140000000     0.731660000000     0.872100000000     0.0611614  
H44      H      0.528790000000     0.816720000000     0.768020000000     0.041058   
H45      H      0.490410000000     0.646070000000     0.773970000000     0.0793986  
H46      H      0.485660000000     0.774370000000     0.645320000000     0.0559251  
H47      H      0.492970000000     0.870320000000     0.734810000000     0.0638861  
H48      H      0.438900000000     0.696900000000     0.748960000000     0.0414389  
H49      H      0.498060000000     0.919780000000     0.680540000000     0.0444353  
H50      H      0.526650000000     0.328040000000     0.908690000000     0.0208563  
H51      H      0.535810000000     0.169050000000     0.585860000000     0.0235385  
H52      H      0.498950000000     0.233530000000     0.816330000000     0.038585   
H53      H      0.516240000000     0.274190000000     0.672140000000     0.0386981  
H54      H      0.543300000000     0.220900000000     0.637410000000     0.0592052  
H55      H      0.521040000000     0.325570000000     0.724570000000     0.0386174  
H56      H      0.461360000000     0.154090000000     0.715180000000     0.0813659  
H57      H      0.532370000000     0.277530000000     0.856020000000     0.0552785  
H58      H      0.486550000000     0.365010000000     0.768860000000     0.0557747  
H59      H      0.499940000000     0.181740000000     0.764620000000     0.0442235  
H60      H      0.484830000000     0.415720000000     0.821860000000     0.020382   
H61      H      0.671770000000     0.085810000000     0.506940000000     0.0196294  
H62      H      0.820970000000     0.413470000000     0.487280000000     0.0200453  
H63      H      0.747070000000     0.194910000000     0.549950000000     0.0399048  
H64      H      0.739200000000     0.306750000000     0.448630000000     0.0377995  
H65      H      0.767220000000     0.363530000000     0.486970000000     0.0569709  
H66      H      0.686090000000     0.254710000000     0.450020000000     0.0383091  
H67      H      0.855080000000     0.268970000000     0.508550000000     0.0785178  
H68      H      0.723460000000     0.138260000000     0.506160000000     0.0552814  
H69      H      0.629970000000     0.229580000000     0.494530000000     0.0562887  
H70      H      0.799650000000     0.247050000000     0.549120000000     0.0412555  
H71      H      0.578830000000     0.176530000000     0.495130000000     0.0230103  
H72      H      0.674330000000     0.914100000000     0.493260000000     0.0197926  
H73      H      0.822660000000     0.586060000000     0.513270000000     0.0205477  
H74      H      0.749700000000     0.804640000000     0.449250000000     0.039175   
H75      H      0.744730000000     0.694510000000     0.552620000000     0.038154   
H76      H      0.769960000000     0.637010000000     0.514500000000     0.0570762  
H77      H      0.691910000000     0.746790000000     0.552160000000     0.0391029  
H78      H      0.858540000000     0.729200000000     0.486390000000     0.0783557  
H79      H      0.726790000000     0.862270000000     0.493730000000     0.0555718  
H80      H      0.634630000000     0.769860000000     0.507150000000     0.0557957  
H81      H      0.801890000000     0.752060000000     0.448950000000     0.0406338  
H82      H      0.582820000000     0.822140000000     0.506700000000     0.0207159  
H83      H      0.173090000000     0.411720000000     0.499570000000     0.0307612  
H84      H      0.320070000000     0.082960000000     0.502440000000     0.0206947  
H85      H      0.243340000000     0.303540000000     0.447800000000     0.040642   
H86      H      0.244100000000     0.189430000000     0.546810000000     0.0387945  
H87      H      0.267070000000     0.133430000000     0.505750000000     0.0579976  
H88      H      0.191660000000     0.241910000000     0.551740000000     0.0398461  
H89      H      0.353700000000     0.226340000000     0.474000000000     0.0806839  
H90      H      0.224700000000     0.359230000000     0.497420000000     0.0605125  
H91      H      0.131630000000     0.267740000000     0.510570000000     0.057287   
H92      H      0.294940000000     0.250730000000     0.441970000000     0.0423806  
H93      H      0.080460000000     0.320840000000     0.512610000000     0.024949   
H94      H      0.412370000000     0.820450000000     0.501710000000     0.0208447  
H95      H      0.084620000000     0.672720000000     0.507180000000     0.0251839  
H96      H      0.304730000000     0.747630000000     0.450740000000     0.0401675  
H97      H      0.191970000000     0.747380000000     0.551150000000     0.0393419  
H98      H      0.135770000000     0.724960000000     0.510950000000     0.0593352  
H99      H      0.244130000000     0.800230000000     0.554770000000     0.0401597  
H100     H      0.227140000000     0.637330000000     0.477430000000     0.0819631  
H101     H      0.360790000000     0.767810000000     0.501180000000     0.0570762  
H102     H      0.267790000000     0.859890000000     0.509740000000     0.0562913  
H103     H      0.252080000000     0.695760000000     0.445950000000     0.0412289  
H104     H      0.319890000000     0.912080000000     0.509960000000     0.0219313  
H105     H      0.819980000000     0.485950000000     0.413500000000     0.0201335  
H106     H      0.671250000000     0.521560000000     0.086190000000     0.0210724  
H107     H      0.735180000000     0.530510000000     0.314940000000     0.0394835  
H108     H      0.762520000000     0.468220000000     0.180040000000     0.03858    
H109     H      0.724340000000     0.524450000000     0.137340000000     0.0587221  
H110     H      0.814050000000     0.463860000000     0.233150000000     0.0378421  
H111     H      0.642200000000     0.473930000000     0.225550000000     0.0829595  
H112     H      0.768170000000     0.487300000000     0.361220000000     0.0556019  
H113     H      0.861870000000     0.500620000000     0.270030000000     0.0548358  
H114     H      0.683050000000     0.532900000000     0.262130000000     0.0445388  
H115     H      0.912700000000     0.497110000000     0.322560000000     0.0193049  
H116     H      0.172320000000     0.483520000000     0.412500000000     0.0328053  
H117     H      0.321760000000     0.504450000000     0.085210000000     0.0189146  
H118     H      0.258740000000     0.528590000000     0.314300000000     0.0442132  
H119     H      0.230760000000     0.462270000000     0.181490000000     0.0382942  
H120     H      0.268710000000     0.508370000000     0.135660000000     0.0580368  
H121     H      0.178220000000     0.462610000000     0.233860000000     0.0381401  
H122     H      0.354510000000     0.475280000000     0.228640000000     0.0820573  
H123     H      0.224140000000     0.483030000000     0.360270000000     0.0615295  
H124     H      0.132120000000     0.506880000000     0.269680000000     0.0557998  
H125     H      0.311410000000     0.527760000000     0.262030000000     0.0434911  
H126     H      0.080900000000     0.506670000000     0.322490000000     0.0210638  
H127     H      0.410720000000     0.508330000000     0.824090000000     0.0321266  
H128     H      0.084110000000     0.485380000000     0.674820000000     0.0258505  
H129     H      0.302010000000     0.549870000000     0.747050000000     0.0415804  
H130     H      0.191120000000     0.447790000000     0.756300000000     0.0385384  
H131     H      0.134370000000     0.485760000000     0.728200000000     0.059614   
H132     H      0.242780000000     0.450610000000     0.809690000000     0.0381863  
H133     H      0.228180000000     0.506040000000     0.639210000000     0.080576   
H134     H      0.358730000000     0.506990000000     0.772020000000     0.0594662  
H135     H      0.266870000000     0.496580000000     0.865130000000     0.0552588  
H136     H      0.250220000000     0.547580000000     0.694130000000     0.0424303  
H137     H      0.319500000000     0.497740000000     0.916700000000     0.0185007  
H138     H      0.673060000000     0.496640000000     0.912540000000     0.0202542  
H139     H      0.821230000000     0.503070000000     0.584580000000     0.0206015  
H140     H      0.750130000000     0.542830000000     0.808350000000     0.0393746  
H141     H      0.738540000000     0.454470000000     0.686330000000     0.038772   
H142     H      0.767560000000     0.501070000000     0.634330000000     0.0574815  
H143     H      0.685720000000     0.451770000000     0.738600000000     0.0393921  
H144     H      0.856370000000     0.501490000000     0.730350000000     0.0784578  
H145     H      0.724770000000     0.496680000000     0.860300000000     0.0558632  
H146     H      0.631180000000     0.492540000000     0.768340000000     0.0596813  
H147     H      0.802800000000     0.545400000000     0.756320000000     0.0405112  
H148     H      0.580030000000     0.491480000000     0.821290000000     0.0340688  
H149     H      0.818930000000     0.915360000000     0.000030000000     0.028684   
H150     H      0.672180000000     0.585630000000     0.992840000000     0.0204029  
H151     H      0.743970000000     0.807770000000     0.045940000000     0.0411232  
H152     H      0.749540000000     0.692380000000     0.948560000000     0.0381715  
H153     H      0.724670000000     0.636680000000     0.989900000000     0.0569188  
H154     H      0.801880000000     0.745100000000     0.945940000000     0.0394249  
H155     H      0.635530000000     0.729640000000     0.013080000000     0.0791484  
H156     H      0.766700000000     0.863360000000     0.000090000000     0.058256   
H157     H      0.859210000000     0.771140000000     0.987820000000     0.0586541  
H158     H      0.692200000000     0.754920000000     0.049150000000     0.0416608  
H159     H      0.910810000000     0.823660000000     0.987580000000     0.0310284  
H160     H      0.675310000000     0.416010000000     0.987330000000     0.021468   
H161     H      0.877770000000     0.145760000000     0.061950000000     0.0202782  
H162     H      0.692580000000     0.241110000000     0.944060000000     0.0399859  
H163     H      0.813330000000     0.265470000000     0.031290000000     0.0401505  
H164     H      0.825830000000     0.198520000000     0.057650000000     0.0622427  
H165     H      0.759320000000     0.316050000000     0.029100000000     0.039286   
H166     H      0.816500000000     0.177220000000     0.928290000000     0.0812948  
H167     H      0.728930000000     0.365860000000     0.985060000000     0.0560176  
H168     H      0.638860000000     0.270360000000     0.985140000000     0.0564066  
H169     H      0.745940000000     0.189570000000     0.947650000000     0.043791   
H170     H      0.585660000000     0.321370000000     0.986470000000     0.0204164  
H171     H      0.319350000000     0.582710000000     0.987530000000     0.0210723  
H172     H      0.170240000000     0.909960000000     0.019610000000     0.0205259  
H173     H      0.247390000000     0.695760000000     0.942900000000     0.040763   
H174     H      0.244710000000     0.798260000000     0.053890000000     0.0385087  
H175     H      0.222430000000     0.858340000000     0.020560000000     0.0574503  
H176     H      0.297360000000     0.745840000000     0.053590000000     0.0394501  
H177     H      0.136770000000     0.771220000000     0.973330000000     0.0824156  
H178     H      0.266790000000     0.634610000000     0.987480000000     0.0567294  
H179     H      0.358090000000     0.726360000000     0.008560000000     0.057226   
H180     H      0.195770000000     0.748900000000     0.942030000000     0.042067   
H181     H      0.410030000000     0.674110000000     0.008150000000     0.0246139  
H182     H      0.413860000000     0.319640000000     0.004170000000     0.0194144  
H183     H      0.141390000000     0.115870000000     0.939150000000     0.0113343  
H184     H      0.238090000000     0.309310000000     0.044770000000     0.0396774  
H185     H      0.259410000000     0.182910000000     0.964980000000     0.0380392  
H186     H      0.193360000000     0.168760000000     0.939380000000     0.057725   
H187     H      0.311710000000     0.235280000000     0.964760000000     0.0377776  
H188     H      0.169500000000     0.189990000000     0.066870000000     0.0791499  
H189     H      0.362360000000     0.267050000000     0.006160000000     0.0551354  
H190     H      0.269270000000     0.359570000000     0.002600000000     0.0549412  
H191     H      0.184790000000     0.257820000000     0.043230000000     0.042503   
H192     H      0.321300000000     0.411400000000     0.001780000000     0.0193641  
H193     H      0.818210000000     0.001220000000     0.916090000000     0.031334   
H194     H      0.670620000000     0.002990000000     0.587490000000     0.0193555  
H195     H      0.732160000000     0.963940000000     0.813640000000     0.0401857  
H196     H      0.756680000000     0.045600000000     0.688920000000     0.0395937  
H197     H      0.722840000000     0.000450000000     0.638680000000     0.0580538  
H198     H      0.809150000000     0.042330000000     0.741220000000     0.0442849  
H199     H      0.633190000000     0.020850000000     0.731640000000     0.0812846  
H200     H      0.765590000000     0.003560000000     0.864760000000     0.0614412  
H201     H      0.857540000000     0.997130000000     0.771210000000     0.0614428  
H202     H      0.679420000000     0.967960000000     0.761550000000     0.0419213  
H203     H      0.909500000000     0.996080000000     0.823130000000     0.0373667  
H204     H      0.173070000000     0.007110000000     0.910050000000     0.0230025  
H205     H      0.319950000000     0.019850000000     0.580990000000     0.0207324  
H206     H      0.256950000000     0.053350000000     0.809170000000     0.0387763  
H207     H      0.226130000000     0.984220000000     0.678410000000     0.0400933  
H208     H      0.266690000000     0.028870000000     0.630920000000     0.0585372  
H209     H      0.174360000000     0.986600000000     0.731410000000     0.0394284  
H210     H      0.348910000000     0.991510000000     0.725460000000     0.0830274  
H211     H      0.223760000000     0.010520000000     0.856930000000     0.0574436  
H212     H      0.128590000000     0.028580000000     0.768220000000     0.0603599  
H213     H      0.309040000000     0.049880000000     0.756370000000     0.0458949  
H214     H      0.078570000000     0.023770000000     0.821830000000     0.0357521  
H215     H      0.321070000000     0.003610000000     0.408960000000     0.024362   
H216     H      0.172010000000     0.974310000000     0.081620000000     0.0209452  
H217     H      0.237230000000     0.952090000000     0.311200000000     0.038928   
H218     H      0.265060000000     0.015280000000     0.176830000000     0.040983   
H219     H      0.225790000000     0.968920000000     0.131480000000     0.0582057  
H220     H      0.317370000000     0.016900000000     0.229430000000     0.0431008  
H221     H      0.142010000000     0.003860000000     0.225620000000     0.0836861  
H222     H      0.269980000000     0.999370000000     0.356180000000     0.0564553  
H223     H      0.364200000000     0.975970000000     0.267760000000     0.059233   
H224     H      0.184780000000     0.951070000000     0.258720000000     0.0404497  
H225     H      0.414630000000     0.981000000000     0.321080000000     0.032806   
H226     H      0.585030000000     0.993560000000     0.324570000000     0.0244585  
H227     H      0.914240000000     0.993710000000     0.177150000000     0.0220573  
H228     H      0.688270000000     0.954580000000     0.241070000000     0.0394     
H229     H      0.814340000000     0.033100000000     0.267880000000     0.0383613  
H230     H      0.864290000000     0.988950000000     0.230710000000     0.0571103  
H231     H      0.761730000000     0.029920000000     0.320120000000     0.0375891  
H232     H      0.769480000000     0.014050000000     0.144340000000     0.0796198  
H233     H      0.637760000000     0.994250000000     0.273440000000     0.0569533  
H234     H      0.728400000000     0.987580000000     0.368240000000     0.0536798  
H235     H      0.740510000000     0.958780000000     0.188600000000     0.0411934  
H236     H      0.674950000000     0.988340000000     0.418780000000     0.0188739  
H237     H      0.995540000000     0.417850000000     0.679300000000     0.0331417  
H238     H      0.055530000000     0.147170000000     0.888400000000     0.012951   
H239     H      0.946250000000     0.310530000000     0.754710000000     0.0409388  
H240     H      0.049410000000     0.200350000000     0.759330000000     0.0399211  
H241     H      0.057660000000     0.200380000000     0.837110000000     0.0588795  
H242     H      0.052700000000     0.251490000000     0.705270000000     0.0374063  
H243     H      0.930690000000     0.183530000000     0.813500000000     0.0821181  
H244     H      0.993860000000     0.367570000000     0.733170000000     0.0620673  
H245     H      0.010450000000     0.272580000000     0.644130000000     0.0630829  
H246     H      0.943050000000     0.259420000000     0.808890000000     0.0433681  
H247     H      0.011980000000     0.323530000000     0.590670000000     0.0329408  
H248     H      0.991400000000     0.678120000000     0.580170000000     0.0300247  
H249     H      0.982190000000     0.827780000000     0.907860000000     0.0349828  
H250     H      0.036760000000     0.761240000000     0.684670000000     0.0411381  
H251     H      0.942970000000     0.747190000000     0.802210000000     0.0383124  
H252     H      0.981010000000     0.775780000000     0.856480000000     0.0624313  
H253     H      0.945310000000     0.693810000000     0.750530000000     0.041572   
H254     H      0.997120000000     0.867090000000     0.763910000000     0.0770579  
H255     H      0.988880000000     0.731790000000     0.630810000000     0.0579608  
H256     H      0.997950000000     0.641690000000     0.725790000000     0.0589723  
H257     H      0.035730000000     0.813910000000     0.736850000000     0.0424622  
H258     H      0.001770000000     0.588770000000     0.674650000000     0.0433869  
H259     H      0.009880000000     0.673020000000     0.410570000000     0.0373378  
H260     H      0.001070000000     0.909710000000     0.173080000000     0.0279327  
H261     H      0.051340000000     0.754580000000     0.306680000000     0.040365   
H262     H      0.965990000000     0.735030000000     0.183670000000     0.041157   
H263     H      0.001650000000     0.858060000000     0.225080000000     0.0605851  
H264     H      0.967150000000     0.682320000000     0.235960000000     0.0391115  
H265     H      0.013660000000     0.765640000000     0.133290000000     0.0813042  
H266     H      0.010640000000     0.724680000000     0.358430000000     0.0609806  
H267     H      0.008810000000     0.630800000000     0.266500000000     0.0567907  
H268     H      0.049490000000     0.807520000000     0.254690000000     0.0403982  
H269     H      0.006340000000     0.579660000000     0.319560000000     0.0215512  
H270     H      0.995260000000     0.408800000000     0.325480000000     0.0175459  
H271     H      0.983190000000     0.080850000000     0.177140000000     0.0310332  
H272     H      0.043970000000     0.299590000000     0.254710000000     0.0392224  
H273     H      0.943610000000     0.186810000000     0.257890000000     0.0384004  
H274     H      0.982320000000     0.130350000000     0.231420000000     0.061018   
H275     H      0.941800000000     0.239100000000     0.310870000000     0.039935   
H276     H      0.010170000000     0.224920000000     0.145070000000     0.0797735  
H277     H      0.995530000000     0.355650000000     0.274510000000     0.0542223  
H278     H      0.985310000000     0.265430000000     0.369300000000     0.0586394  
H279     H      0.046650000000     0.247040000000     0.202540000000     0.042622   
H280     H      0.985130000000     0.319250000000     0.419880000000     0.0311079  
N1       N      0.494470000000     0.120080000000     0.367440000000    -0.22756    
N2       N      0.494890000000     0.365740000000     0.122740000000    -0.213799   
N3       N      0.463740000000     0.072680000000     0.318360000000    -0.0356983  
N4       N      0.500460000000     0.620360000000     0.132350000000    -0.221253   
N5       N      0.505960000000     0.867140000000     0.376660000000    -0.218295   
N6       N      0.525480000000     0.571000000000     0.183110000000    -0.0356643  
N7       N      0.488980000000     0.628990000000     0.875950000000    -0.224094   
N8       N      0.493050000000     0.876150000000     0.631980000000    -0.212349   
N9       N      0.501390000000     0.581610000000     0.818770000000    -0.0346332  
N10      N      0.496650000000     0.130820000000     0.621420000000    -0.225508   
N11      N      0.505020000000     0.375540000000     0.869300000000    -0.221487   
N12      N      0.446760000000     0.094820000000     0.664120000000    -0.0365023  
N13      N      0.869320000000     0.370870000000     0.499180000000    -0.224564   
N14      N      0.621330000000     0.127060000000     0.500990000000    -0.220054   
N15      N      0.917770000000     0.316420000000     0.517720000000    -0.0350256  
N16      N      0.871220000000     0.627370000000     0.498130000000    -0.222618   
N17      N      0.624580000000     0.872170000000     0.500080000000    -0.217894   
N18      N      0.919520000000     0.679920000000     0.474760000000    -0.0349583  
N19      N      0.367800000000     0.124780000000     0.486030000000    -0.224882   
N20      N      0.122760000000     0.370320000000     0.505750000000    -0.219486   
N21      N      0.414370000000     0.177050000000     0.459250000000    -0.0356486  
N22      N      0.125590000000     0.624650000000     0.489640000000    -0.224669   
N23      N      0.370090000000     0.870300000000     0.505440000000    -0.215724   
N24      N      0.176580000000     0.578080000000     0.460810000000    -0.0346788  
N25      N      0.625960000000     0.496000000000     0.125940000000    -0.222507   
N26      N      0.870250000000     0.491690000000     0.372120000000    -0.218147   
N27      N      0.583340000000     0.457770000000     0.174030000000    -0.0352261  
N28      N      0.369380000000     0.488080000000     0.127200000000    -0.22522    
N29      N      0.122740000000     0.495590000000     0.371580000000    -0.218532   
N30      N      0.415610000000     0.461290000000     0.179480000000    -0.0356231  
N31      N      0.126300000000     0.496600000000     0.625930000000    -0.224881   
N32      N      0.369180000000     0.502890000000     0.874390000000    -0.22016    
N33      N      0.180140000000     0.514700000000     0.576710000000    -0.0360685  
N34      N      0.870480000000     0.503770000000     0.627970000000    -0.222364   
N35      N      0.622560000000     0.494660000000     0.870950000000    -0.217203   
N36      N      0.920300000000     0.507170000000     0.684200000000    -0.0340093  
N37      N      0.623150000000     0.627350000000     0.005210000000    -0.22195    
N38      N      0.868920000000     0.873560000000     0.994130000000    -0.213035   
N39      N      0.574430000000     0.680720000000     0.025570000000    -0.0350788  
N40      N      0.875080000000     0.130590000000     0.998770000000    -0.229162   
N41      N      0.626320000000     0.372600000000     0.987630000000    -0.216949   
N42      N      0.873560000000     0.120750000000     0.924630000000    -0.0399498  
N43      N      0.123520000000     0.871240000000     0.995130000000    -0.223394   
N44      N      0.368690000000     0.624360000000     0.997950000000    -0.216611   
N45      N      0.078290000000     0.823360000000     0.959280000000    -0.0353015  
N46      N      0.124790000000     0.124540000000     0.001440000000    -0.232949   
N47      N      0.371640000000     0.369590000000     0.002720000000    -0.219643   
N48      N      0.116150000000     0.130530000000     0.075090000000    -0.0525684  
N49      N      0.620940000000     0.012610000000     0.629250000000    -0.225171   
N50      N      0.867920000000     0.998870000000     0.873620000000    -0.211295   
N51      N      0.571270000000     0.030980000000     0.682510000000    -0.0355604  
N52      N      0.365590000000     0.000750000000     0.623920000000    -0.219649   
N53      N      0.121900000000     0.014500000000     0.869990000000    -0.215826   
N54      N      0.408930000000     0.970850000000     0.677080000000    -0.0346923  
N55      N      0.125600000000     0.992070000000     0.124290000000    -0.227031   
N56      N      0.371780000000     0.993000000000     0.369060000000    -0.214467   
N57      N      0.080340000000     0.018910000000     0.177800000000    -0.0365395  
N58      N      0.871360000000     0.005980000000     0.129080000000    -0.222494   
N59      N      0.625850000000     0.991250000000     0.375650000000    -0.219381   
N60      N      0.817020000000     0.027320000000     0.081800000000    -0.0352095  
N61      N      0.992590000000     0.133200000000     0.879420000000    -0.229085   
N62      N      0.003350000000     0.374530000000     0.630780000000    -0.212445   
N63      N      0.917740000000     0.123550000000     0.870010000000    -0.0123777  
N64      N      0.992050000000     0.877810000000     0.866550000000    -0.219769   
N65      N      0.995950000000     0.629220000000     0.623510000000    -0.211588   
N66      N      0.007110000000     0.928430000000     0.812950000000    -0.028872   
N67      N      0.006660000000     0.868300000000     0.122450000000    -0.222523   
N68      N      0.007210000000     0.622360000000     0.369150000000    -0.214471   
N69      N      0.019540000000     0.814900000000     0.071210000000    -0.0324154  
N70      N      0.998020000000     0.123570000000     0.129720000000    -0.227982   
N71      N      0.990610000000     0.368130000000     0.376630000000    -0.219908   
N72      N      0.020300000000     0.177890000000     0.082220000000    -0.0367605  
O1       O      0.996300000000     0.107180000000     0.060670000000    -0.629478   
O2       O      0.000490000000     0.888680000000     0.054070000000    -0.54437    
O3       O      0.940090000000     0.002340000000     0.110230000000    -0.598322   
O4       O      0.056430000000     0.993440000000     0.107350000000    -0.592748   
O5       O      0.107040000000     0.994400000000     0.055500000000    -0.618282   
O6       O      0.888380000000     0.003690000000     0.059700000000    -0.557586   
O7       O      0.003520000000     0.937890000000     0.106980000000    -0.596484   
O8       O      0.996730000000     0.054750000000     0.110420000000    -0.601398   
O9       O      0.037380000000     0.958590000000     0.037140000000    -1.45081    
O10      O      0.957880000000     0.039340000000     0.041510000000    -1.47193    
O11      O      0.950870000000     0.952810000000     0.039780000000    -1.06722    
O12      O      0.039880000000     0.039440000000     0.041790000000    -1.65247    
O13      O      0.993250000000     0.892990000000     0.936300000000    -0.549398   
O14      O      0.000360000000     0.112810000000     0.946060000000    -0.610389   
O15      O      0.886760000000     0.942460000000     0.997880000000    -0.557718   
O16      O      0.106740000000     0.940400000000     0.999150000000    -0.610721   
O17      O      0.107360000000     0.056670000000     0.996070000000    -0.623611   
O18      O      0.889340000000     0.061530000000     0.998560000000    -0.542906   
O19      O      0.936860000000     0.000430000000     0.890440000000    -0.54581    
O20      O      0.053660000000     0.009400000000     0.888860000000    -0.560149   
O21      O      0.886240000000     0.999570000000     0.942360000000    -0.555682   
O22      O      0.105970000000     0.006860000000     0.938970000000    -0.60396    
O23      O      0.937750000000     0.890960000000     0.994360000000    -0.560061   
O24      O      0.941550000000     0.111370000000     0.007750000000    -0.614043   
O25      O      0.056580000000     0.108300000000     0.002690000000    -0.626277   
O26      O      0.054840000000     0.890120000000     0.995190000000    -0.540865   
O27      O      0.993700000000     0.946150000000     0.887250000000    -0.547534   
O28      O      0.993350000000     0.063900000000     0.892660000000    -0.552112   
O29      O      0.037180000000     0.041530000000     0.960020000000    -1.47889    
O30      O      0.956360000000     0.962390000000     0.958660000000    -1.37727    
O31      O      0.950620000000     0.043540000000     0.955260000000    -1.00477    
O32      O      0.037400000000     0.955330000000     0.950300000000    -1.05152    
O33      O      0.992720000000     0.387510000000     0.445010000000    -0.619596   
O34      O      0.002290000000     0.606160000000     0.438180000000    -0.55417    
O35      O      0.938790000000     0.492210000000     0.390000000000    -0.616934   
O36      O      0.054250000000     0.497270000000     0.389880000000    -0.624947   
O37      O      0.105950000000     0.496420000000     0.440690000000    -0.619837   
O38      O      0.887540000000     0.494510000000     0.441180000000    -0.570015   
O39      O      0.003010000000     0.553760000000     0.388130000000    -0.599755   
O40      O      0.993240000000     0.437410000000     0.392360000000    -0.625182   
O41      O      0.037620000000     0.536670000000     0.458280000000    -1.46898    
O42      O      0.956880000000     0.457510000000     0.460950000000    -1.46227    
O43      O      0.951210000000     0.544010000000     0.457130000000    -1.06091    
O44      O      0.038100000000     0.455110000000     0.458940000000    -1.6404     
O45      O      0.996840000000     0.609710000000     0.555130000000    -0.559636   
O46      O      0.002150000000     0.390050000000     0.561270000000    -0.591176   
O47      O      0.888040000000     0.558030000000     0.499690000000    -0.565312   
O48      O      0.107410000000     0.555640000000     0.491980000000    -0.58614    
O49      O      0.105870000000     0.439310000000     0.503090000000    -0.625688   
O50      O      0.887280000000     0.440020000000     0.499480000000    -0.569052   
O51      O      0.939510000000     0.502320000000     0.609540000000    -0.542857   
O52      O      0.057160000000     0.498410000000     0.608780000000    -0.562387   
O53      O      0.888000000000     0.502380000000     0.558830000000    -0.567139   
O54      O      0.107580000000     0.494300000000     0.557120000000    -0.596932   
O55      O      0.939920000000     0.608430000000     0.498260000000    -0.546209   
O56      O      0.938280000000     0.388830000000     0.498470000000    -0.592879   
O57      O      0.054140000000     0.388580000000     0.505120000000    -0.621045   
O58      O      0.056800000000     0.607310000000     0.493990000000    -0.564753   
O59      O      0.997300000000     0.559860000000     0.607820000000    -0.556356   
O60      O      0.000360000000     0.442740000000     0.611020000000    -0.560204   
O61      O      0.037410000000     0.458940000000     0.540440000000    -1.47005    
O62      O      0.958060000000     0.539470000000     0.538760000000    -1.36484    
O63      O      0.951000000000     0.458510000000     0.547430000000    -1.05927    
O64      O      0.039680000000     0.545450000000     0.544390000000    -1.05014    
O65      O      0.606710000000     0.994560000000     0.444140000000    -0.62333    
O66      O      0.387840000000     0.996750000000     0.438270000000    -0.568686   
O67      O      0.504260000000     0.936330000000     0.392100000000    -0.615719   
O68      O      0.494840000000     0.051910000000     0.388060000000    -0.615327   
O69      O      0.494970000000     0.105290000000     0.437030000000    -0.620588   
O70      O      0.501760000000     0.886820000000     0.445000000000    -0.570123   
O71      O      0.440190000000     0.995240000000     0.388220000000    -0.599605   
O72      O      0.556600000000     0.992470000000     0.391780000000    -0.622639   
O73      O      0.456790000000     0.036800000000     0.456760000000    -1.46304    
O74      O      0.537510000000     0.957520000000     0.462030000000    -1.47095    
O75      O      0.451290000000     0.950020000000     0.459030000000    -1.05669    
O76      O      0.538290000000     0.038820000000     0.457160000000    -1.64298    
O77      O      0.384930000000     0.999250000000     0.555410000000    -0.562713   
O78      O      0.604500000000     0.007480000000     0.560080000000    -0.610248   
O79      O      0.438740000000     0.888350000000     0.504100000000    -0.567978   
O80      O      0.436970000000     0.107710000000     0.489220000000    -0.592329   
O81      O      0.552840000000     0.108550000000     0.498740000000    -0.626518   
O82      O      0.555830000000     0.889500000000     0.502400000000    -0.575765   
O83      O      0.494200000000     0.944370000000     0.611690000000    -0.552862   
O84      O      0.493490000000     0.061660000000     0.606400000000    -0.548502   
O85      O      0.494670000000     0.891090000000     0.562440000000    -0.567259   
O86      O      0.499850000000     0.110850000000     0.553400000000    -0.606629   
O87      O      0.387070000000     0.939200000000     0.502060000000    -0.563616   
O88      O      0.606640000000     0.941080000000     0.499180000000    -0.608443   
O89      O      0.604570000000     0.057900000000     0.502240000000    -0.622311   
O90      O      0.386270000000     0.056180000000     0.491610000000    -0.566405   
O91      O      0.434960000000     0.999900000000     0.607790000000    -0.537038   
O92      O      0.552350000000     0.007230000000     0.610130000000    -0.552407   
O93      O      0.534860000000     0.040600000000     0.538660000000    -1.47305    
O94      O      0.455830000000     0.959870000000     0.540090000000    -1.37357    
O95      O      0.537160000000     0.954580000000     0.548610000000    -1.07164    
O96      O      0.448460000000     0.041510000000     0.543000000000    -1.05524    
O97      O      0.440420000000     0.387790000000     0.999890000000    -0.624224   
O98      O      0.437430000000     0.607020000000     0.001410000000    -0.570488   
O99      O      0.387370000000     0.490880000000     0.058480000000    -0.61572    
O100     O      0.387370000000     0.500330000000     0.943060000000    -0.629024   
O101     O      0.438110000000     0.503130000000     0.891420000000    -0.625247   
O102     O      0.438610000000     0.490880000000     0.109570000000    -0.544065   
O103     O      0.386760000000     0.555410000000     0.997010000000    -0.6041     
O104     O      0.388740000000     0.438610000000     0.002070000000    -0.623955   
O105     O      0.456230000000     0.538630000000     0.961460000000    -1.47206    
O106     O      0.457830000000     0.455870000000     0.038780000000    -1.46964    
O107     O      0.455490000000     0.542130000000     0.048120000000    -1.06207    
O108     O      0.455670000000     0.456880000000     0.957420000000    -1.64311    
O109     O      0.554330000000     0.608390000000     0.004240000000    -0.545486   
O110     O      0.557040000000     0.388740000000     0.991180000000    -0.605049   
O111     O      0.499170000000     0.552100000000     0.111910000000    -0.548065   
O112     O      0.490240000000     0.559480000000     0.892210000000    -0.596897   
O113     O      0.499000000000     0.443560000000     0.888800000000    -0.62879    
O114     O      0.496390000000     0.435150000000     0.107350000000    -0.55174    
O115     O      0.607680000000     0.498970000000     0.057280000000    -0.569698   
O116     O      0.605740000000     0.497650000000     0.939960000000    -0.574344   
O117     O      0.556860000000     0.494960000000     0.108810000000    -0.532988   
O118     O      0.553980000000     0.496310000000     0.889290000000    -0.606389   
O119     O      0.497730000000     0.605200000000     0.062680000000    -0.549935   
O120     O      0.494330000000     0.385610000000     0.054470000000    -0.614667   
O121     O      0.502700000000     0.390820000000     0.938520000000    -0.631384   
O122     O      0.492860000000     0.609280000000     0.944540000000    -0.561633   
O123     O      0.606180000000     0.558040000000     0.002290000000    -0.566581   
O124     O      0.607350000000     0.440840000000     0.993800000000    -0.572198   
O125     O      0.536980000000     0.459750000000     0.958390000000    -1.48123    
O126     O      0.536800000000     0.536820000000     0.040910000000    -1.37228    
O127     O      0.544350000000     0.455410000000     0.044440000000    -1.06386    
O128     O      0.542470000000     0.546110000000     0.959410000000    -1.05987    
O129     O      0.474990000000     0.051480000000     0.286840000000    -0.116642   
O130     O      0.428710000000     0.065230000000     0.335120000000    -0.092246   
O131     O      0.509710000000     0.551140000000     0.213540000000    -0.0895793  
O132     O      0.560720000000     0.559840000000     0.169030000000    -0.0860843  
O133     O      0.537430000000     0.566650000000     0.825360000000    -0.104555   
O134     O      0.478550000000     0.565250000000     0.790860000000    -0.115414   
O135     O      0.443290000000     0.077980000000     0.699820000000    -0.0899235  
O136     O      0.419180000000     0.087550000000     0.636650000000    -0.0913572  
O137     O      0.935150000000     0.286620000000     0.498260000000    -0.116766   
O138     O      0.932040000000     0.327370000000     0.553020000000    -0.105177   
O139     O      0.938310000000     0.710740000000     0.491070000000    -0.116373   
O140     O      0.931630000000     0.666330000000     0.439590000000    -0.103636   
O141     O      0.432830000000     0.209550000000     0.472360000000    -0.111978   
O142     O      0.425700000000     0.160940000000     0.424910000000    -0.0904656  
O143     O      0.209340000000     0.558880000000     0.472020000000    -0.097626   
O144     O      0.159280000000     0.568320000000     0.426580000000    -0.0957321  
O145     O      0.564210000000     0.462600000000     0.208380000000    -0.093103   
O146     O      0.576270000000     0.425420000000     0.152330000000    -0.0998091  
O147     O      0.425850000000     0.426550000000     0.163560000000    -0.096899   
O148     O      0.434320000000     0.473950000000     0.212020000000    -0.0949345  
O149     O      0.210120000000     0.495550000000     0.559330000000    -0.10293    
O150     O      0.168510000000     0.549620000000     0.562060000000    -0.0902114  
O151     O      0.935060000000     0.478610000000     0.707350000000    -0.114995   
O152     O      0.938400000000     0.542330000000     0.682980000000    -0.105822   
O153     O      0.555810000000     0.710540000000     0.007340000000    -0.11349    
O154     O      0.561890000000     0.669050000000     0.061260000000    -0.0979542  
O155     O      0.907540000000     0.133510000000     0.907510000000    -0.0794843  
O156     O      0.849080000000     0.096140000000     0.905420000000    -0.0867292  
O157     O      0.059040000000     0.789400000000     0.966020000000    -0.0944778  
O158     O      0.069320000000     0.844490000000     0.927000000000    -0.0918655  
O159     O      0.080560000000     0.141450000000     0.088880000000    -0.0803711  
O160     O      0.138160000000     0.105860000000     0.096870000000    -0.114524   
O161     O      0.556700000000     0.065490000000     0.669670000000    -0.0867027  
O162     O      0.553710000000     0.012760000000     0.712980000000    -0.0986023  
O163     O      0.417560000000     0.936120000000     0.660140000000    -0.0987123  
O164     O      0.427460000000     0.981160000000     0.710540000000    -0.093824   
O165     O      0.069830000000     0.054100000000     0.162950000000    -0.0989029  
O166     O      0.061800000000     0.005250000000     0.210030000000    -0.111762   
O167     O      0.830480000000     0.062040000000     0.068280000000    -0.0974117  
O168     O      0.785520000000     0.010810000000     0.064400000000    -0.110441   
O169     O      0.889180000000     0.134970000000     0.844880000000    -0.10037    
O170     O      0.922000000000     0.084380000000     0.866150000000    -0.0751877  
O171     O      0.985040000000     0.946770000000     0.785660000000    -0.116674   
O172     O      0.043090000000     0.942640000000     0.821330000000    -0.0962396  
O173     O      0.997620000000     0.786650000000     0.054190000000    -0.109186   
O174     O      0.054500000000     0.824340000000     0.055320000000    -0.0851412  
O175     O      0.055860000000     0.167380000000     0.067840000000    -0.061262   
O176     O      0.998540000000     0.204180000000     0.062130000000    -0.108607   


