data_structure

_audit_creation_method RASPA-1.0
_audit_creation_date 2023-5-19
_audit_author_name 'Poobodin Mano'

_cell_length_a    32.839
_cell_length_b    32.8856
_cell_length_c    32.8314
_cell_angle_alpha 90
_cell_angle_beta  90
_cell_angle_gamma 90
_cell_volume      35455.6

_symmetry_cell_setting          triclinic
_symmetry_space_group_name_Hall 'P 1'
_symmetry_space_group_name_H-M  'P 1'
_symmetry_Int_Tables_number     1

_symmetry_equiv_pos_as_xyz 'x,y,z'

loop_
_atom_site_label
_atom_site_type_symbol
_atom_site_fract_x
_atom_site_fract_y
_atom_site_fract_z
_atom_site_charge
C1       C      0.984670000000     0.087750000000     0.088480000000     0.506444   
C2       C      0.997580000000     0.892840000000     0.092130000000     0.505003   
C3       C      0.892620000000     0.988590000000     0.091610000000     0.510251   
C4       C      0.088070000000     0.986690000000     0.089070000000     0.507713   
C5       C      0.983730000000     0.890060000000     0.896200000000     0.501259   
C6       C      0.996200000000     0.085350000000     0.893690000000     0.506208   
C7       C      0.892640000000     0.890690000000     0.992240000000     0.496757   
C8       C      0.088800000000     0.892170000000     0.998200000000     0.505885   
C9       C      0.086570000000     0.086870000000     0.986150000000     0.506503   
C10      C      0.891980000000     0.086330000000     0.998900000000     0.503847   
C11      C      0.891230000000     0.986290000000     0.895970000000     0.497252   
C12      C      0.086940000000     0.990770000000     0.893880000000     0.508699   
C13      C      0.989310000000     0.393350000000     0.393410000000     0.503023   
C14      C      0.003020000000     0.588210000000     0.396960000000     0.515564   
C15      C      0.896630000000     0.488130000000     0.390100000000     0.511032   
C16      C      0.091880000000     0.487960000000     0.399700000000     0.505056   
C17      C      0.985000000000     0.584680000000     0.591970000000     0.495857   
C18      C      0.989930000000     0.388980000000     0.588850000000     0.511579   
C19      C      0.892090000000     0.587140000000     0.491050000000     0.499339   
C20      C      0.088840000000     0.585730000000     0.495500000000     0.512139   
C21      C      0.085730000000     0.390500000000     0.500000000000     0.512013   
C22      C      0.891240000000     0.392520000000     0.480100000000     0.512932   
C23      C      0.888870000000     0.491950000000     0.586240000000     0.504803   
C24      C      0.083830000000     0.480720000000     0.594090000000     0.50982    
C25      C      0.587600000000     0.988500000000     0.395710000000     0.508261   
C26      C      0.392740000000     0.996080000000     0.393830000000     0.510324   
C27      C      0.493770000000     0.892430000000     0.394200000000     0.512854   
C28      C      0.485120000000     0.086970000000     0.394860000000     0.508938   
C29      C      0.392070000000     0.989570000000     0.590070000000     0.504236   
C30      C      0.587440000000     0.997900000000     0.590550000000     0.508708   
C31      C      0.393510000000     0.890920000000     0.494250000000     0.497745   
C32      C      0.391040000000     0.086830000000     0.487730000000     0.508723   
C33      C      0.586010000000     0.088630000000     0.494570000000     0.505568   
C34      C      0.589780000000     0.894430000000     0.485640000000     0.508488   
C35      C      0.489870000000     0.892900000000     0.590780000000     0.499282   
C36      C      0.493930000000     0.088280000000     0.589820000000     0.510436   
C37      C      0.391270000000     0.392350000000     0.993750000000     0.503328   
C38      C      0.586710000000     0.389730000000     0.991610000000     0.511476   
C39      C      0.476800000000     0.390440000000     0.895990000000     0.514148   
C40      C      0.497850000000     0.391320000000     0.090050000000     0.511756   
C41      C      0.588040000000     0.585520000000     0.984890000000     0.501075   
C42      C      0.393200000000     0.587240000000     0.004090000000     0.516791   
C43      C      0.583380000000     0.488100000000     0.891110000000     0.49796    
C44      C      0.591360000000     0.482290000000     0.086800000000     0.508565   
C45      C      0.396510000000     0.492000000000     0.094100000000     0.505039   
C46      C      0.387400000000     0.487410000000     0.899540000000     0.510414   
C47      C      0.489720000000     0.585160000000     0.893570000000     0.505938   
C48      C      0.490260000000     0.586210000000     0.090970000000     0.50979    
C49      C      0.508220000000     0.339930000000     0.189500000000    -0.150447   
C50      C      0.479630000000     0.105960000000     0.324930000000     0.0859821  
C51      C      0.487230000000     0.156800000000     0.375590000000     0.0857452  
C52      C      0.479340000000     0.135570000000     0.294410000000    -0.104677   
C53      C      0.456860000000     0.210040000000     0.241620000000    -0.0378867  
C54      C      0.459000000000     0.240280000000     0.211720000000    -0.0319301  
C55      C      0.486130000000     0.208240000000     0.272740000000    -0.00878173 
C56      C      0.487750000000     0.187070000000     0.345810000000    -0.105524   
C57      C      0.490810000000     0.269000000000     0.212010000000    -0.0180886  
C58      C      0.483170000000     0.292840000000     0.139640000000    -0.116597   
C59      C      0.520370000000     0.266600000000     0.242980000000    -0.0317021  
C60      C      0.486440000000     0.323170000000     0.110110000000     0.0891844  
C61      C      0.513810000000     0.369190000000     0.158830000000     0.194825   
C62      C      0.517850000000     0.236820000000     0.273150000000    -0.0382183  
C63      C      0.483990000000     0.176570000000     0.304710000000     0.0545512  
C64      C      0.493480000000     0.301130000000     0.180090000000     0.0739382  
C65      C      0.485790000000     0.840060000000     0.294930000000    -0.149722   
C66      C      0.488300000000     0.656080000000     0.110490000000     0.0868704  
C67      C      0.495400000000     0.605010000000     0.160880000000     0.0892555  
C68      C      0.490140000000     0.686360000000     0.140300000000    -0.10274    
C69      C      0.516800000000     0.745360000000     0.205730000000    -0.0371275  
C70      C      0.518180000000     0.775600000000     0.235630000000    -0.0321047  
C71      C      0.497890000000     0.707740000000     0.213610000000    -0.00815957 
C72      C      0.497930000000     0.634500000000     0.191360000000    -0.104234   
C73      C      0.501250000000     0.768720000000     0.274290000000    -0.017998   
C74      C      0.511080000000     0.793900000000     0.345600000000    -0.11629    
C75      C      0.483100000000     0.730970000000     0.282570000000    -0.0320427  
C76      C      0.507900000000     0.824740000000     0.374600000000     0.0929225  
C77      C      0.480240000000     0.869910000000     0.325060000000     0.196413   
C78      C      0.481180000000     0.700940000000     0.252520000000    -0.0371454  
C79      C      0.495340000000     0.675860000000     0.181380000000     0.0545938  
C80      C      0.500410000000     0.801560000000     0.305200000000     0.0756421  
C81      C      0.495760000000     0.638850000000     0.793480000000    -0.147004   
C82      C      0.490090000000     0.875050000000     0.661150000000     0.0869532  
C83      C      0.492110000000     0.823210000000     0.611040000000     0.0861829  
C84      C      0.491660000000     0.846070000000     0.692170000000    -0.103308   
C85      C      0.471390000000     0.776930000000     0.750260000000    -0.0376464  
C86      C      0.472390000000     0.746900000000     0.780390000000    -0.0321009  
C87      C      0.495730000000     0.773470000000     0.715180000000    -0.00824391 
C88      C      0.493820000000     0.793420000000     0.641350000000    -0.102794   
C89      C      0.497760000000     0.712740000000     0.776120000000    -0.0179479  
C90      C      0.493860000000     0.686890000000     0.848000000000    -0.115023   
C91      C      0.522800000000     0.709800000000     0.741490000000    -0.0321616  
C92      C      0.491170000000     0.654740000000     0.875560000000     0.088231   
C93      C      0.491520000000     0.606550000000     0.821290000000     0.188786   
C94      C      0.521750000000     0.739770000000     0.711360000000    -0.0377272  
C95      C      0.493740000000     0.804690000000     0.682510000000     0.0542567  
C96      C      0.496430000000     0.679160000000     0.806430000000     0.0739264  
C97      C      0.464840000000     0.340000000000     0.796430000000    -0.149314   
C98      C      0.497790000000     0.107230000000     0.659820000000     0.0853005  
C99      C      0.491680000000     0.158140000000     0.609030000000     0.0888811  
C100     C      0.496980000000     0.136760000000     0.690380000000    -0.104272   
C101     C      0.517300000000     0.210590000000     0.744320000000    -0.037754   
C102     C      0.514030000000     0.240390000000     0.774520000000    -0.031613   
C103     C      0.489300000000     0.209290000000     0.712050000000    -0.00860731 
C104     C      0.490120000000     0.188350000000     0.638850000000    -0.105281   
C105     C      0.482310000000     0.269190000000     0.773390000000    -0.0178716  
C106     C      0.487460000000     0.291700000000     0.846320000000    -0.116885   
C107     C      0.454090000000     0.267440000000     0.741160000000    -0.0314855  
C108     C      0.484540000000     0.321800000000     0.876070000000     0.0946048  
C109     C      0.459770000000     0.369200000000     0.827270000000     0.195987   
C110     C      0.457750000000     0.238040000000     0.710700000000    -0.0379085  
C111     C      0.492520000000     0.177760000000     0.680030000000     0.0551291  
C112     C      0.478590000000     0.300800000000     0.805710000000     0.0752068  
C113     C      0.791030000000     0.342650000000     0.469500000000    -0.150075   
C114     C      0.655930000000     0.108120000000     0.494510000000     0.0825111  
C115     C      0.604660000000     0.158760000000     0.492800000000     0.0845242  
C116     C      0.686220000000     0.137830000000     0.493600000000    -0.104447   
C117     C      0.744180000000     0.203850000000     0.467640000000    -0.0377553  
C118     C      0.774450000000     0.233600000000     0.465590000000    -0.032137   
C119     C      0.707780000000     0.211050000000     0.489150000000    -0.00847735 
C120     C      0.634240000000     0.189280000000     0.491230000000    -0.104068   
C121     C      0.768840000000     0.271480000000     0.484450000000    -0.0185338  
C122     C      0.841430000000     0.293670000000     0.489410000000    -0.118148   
C123     C      0.732460000000     0.279020000000     0.505600000000    -0.0321264  
C124     C      0.871100000000     0.323840000000     0.486840000000     0.0945288  
C125     C      0.821780000000     0.372030000000     0.464620000000     0.195865   
C126     C      0.702370000000     0.249040000000     0.508190000000    -0.0375942  
C127     C      0.675690000000     0.179070000000     0.491530000000     0.0533165  
C128     C      0.800790000000     0.303160000000     0.481690000000     0.0758815  
C129     C      0.792700000000     0.641060000000     0.483710000000    -0.147828   
C130     C      0.660140000000     0.877270000000     0.480220000000     0.0888184  
C131     C      0.610480000000     0.824980000000     0.481150000000     0.0863067  
C132     C      0.691330000000     0.848500000000     0.477760000000    -0.104173   
C133     C      0.750270000000     0.780700000000     0.499700000000    -0.0377026  
C134     C      0.780290000000     0.750550000000     0.500250000000    -0.0323255  
C135     C      0.714890000000     0.775880000000     0.476030000000    -0.00841077 
C136     C      0.640950000000     0.795410000000     0.478610000000    -0.103221   
C137     C      0.775650000000     0.714860000000     0.477130000000    -0.017992   
C138     C      0.847470000000     0.688990000000     0.482730000000    -0.115237   
C139     C      0.740770000000     0.710550000000     0.452640000000    -0.032305   
C140     C      0.874930000000     0.656950000000     0.487370000000     0.0875355  
C141     C      0.820480000000     0.609160000000     0.490350000000     0.186995   
C142     C      0.710740000000     0.740660000000     0.452120000000    -0.0377838  
C143     C      0.682000000000     0.806980000000     0.477170000000     0.0545139  
C144     C      0.805830000000     0.681240000000     0.480410000000     0.0730127  
C145     C      0.184910000000     0.337980000000     0.506800000000    -0.151756   
C146     C      0.320660000000     0.104720000000     0.487020000000     0.0848777  
C147     C      0.370790000000     0.156470000000     0.485350000000     0.0883713  
C148     C      0.289710000000     0.133770000000     0.486010000000    -0.103549   
C149     C      0.230150000000     0.199950000000     0.507670000000    -0.0372742  
C150     C      0.199780000000     0.229650000000     0.508950000000    -0.0318886  
C151     C      0.266600000000     0.206750000000     0.486070000000    -0.00830013 
C152     C      0.340570000000     0.186370000000     0.485100000000    -0.104      
C153     C      0.205390000000     0.267110000000     0.489310000000    -0.0186769  
C154     C      0.133350000000     0.291160000000     0.484810000000    -0.118125   
C155     C      0.241560000000     0.274110000000     0.467680000000    -0.0324042  
C156     C      0.104370000000     0.321850000000     0.489010000000     0.0892234  
C157     C      0.154850000000     0.367640000000     0.513600000000     0.19289    
C158     C      0.271680000000     0.244130000000     0.465740000000    -0.0375344  
C159     C      0.299330000000     0.175290000000     0.485430000000     0.0543283  
C160     C      0.174200000000     0.299390000000     0.492810000000     0.0749767  
C161     C      0.141420000000     0.684480000000     0.506000000000    -0.149153   
C162     C      0.375380000000     0.820870000000     0.489450000000     0.0866426  
C163     C      0.323870000000     0.870570000000     0.497960000000     0.0860535  
C164     C      0.346120000000     0.790080000000     0.487870000000    -0.102495   
C165     C      0.280710000000     0.728290000000     0.506830000000    -0.0372435  
C166     C      0.250840000000     0.698010000000     0.506010000000    -0.0320631  
C167     C      0.273010000000     0.767030000000     0.490260000000    -0.00788774 
C168     C      0.293860000000     0.840470000000     0.497100000000    -0.102382   
C169     C      0.212370000000     0.705900000000     0.489110000000    -0.0178696  
C170     C      0.187630000000     0.634470000000     0.479540000000    -0.116488   
C171     C      0.204590000000     0.744390000000     0.472330000000    -0.0320594  
C172     C      0.156860000000     0.605360000000     0.482500000000     0.0930983  
C173     C      0.111650000000     0.654210000000     0.511220000000     0.195921   
C174     C      0.234640000000     0.774510000000     0.472610000000    -0.0371828  
C175     C      0.304680000000     0.799560000000     0.491700000000     0.0538536  
C176     C      0.179850000000     0.674650000000     0.490710000000     0.0753968  
C177     C      0.798780000000     0.492970000000     0.335070000000    -0.150003   
C178     C      0.661500000000     0.472510000000     0.103050000000     0.0869328  
C179     C      0.613550000000     0.483030000000     0.155920000000     0.0857954  
C180     C      0.692980000000     0.469250000000     0.131540000000    -0.102375   
C181     C      0.756650000000     0.487790000000     0.195760000000    -0.0369748  
C182     C      0.787030000000     0.488090000000     0.225610000000    -0.0317904  
C183     C      0.717940000000     0.471370000000     0.204120000000    -0.00811082 
C184     C      0.644310000000     0.480370000000     0.185130000000    -0.104208   
C185     C      0.779270000000     0.472400000000     0.264620000000    -0.0179508  
C186     C      0.850790000000     0.466800000000     0.290880000000    -0.116386   
C187     C      0.741050000000     0.455100000000     0.272780000000    -0.0323677  
C188     C      0.879200000000     0.472220000000     0.322040000000     0.0923336  
C189     C      0.828250000000     0.500650000000     0.365120000000     0.192253   
C190     C      0.710840000000     0.454320000000     0.242810000000    -0.0374062  
C191     C      0.684700000000     0.473360000000     0.173220000000     0.0541873  
C192     C      0.809960000000     0.476500000000     0.297510000000     0.0747717  
C193     C      0.193980000000     0.482300000000     0.352090000000    -0.148796   
C194     C      0.327090000000     0.491960000000     0.115080000000     0.0824706  
C195     C      0.379340000000     0.493440000000     0.164800000000     0.0843605  
C196     C      0.297390000000     0.492470000000     0.145380000000    -0.104979   
C197     C      0.241260000000     0.469280000000     0.213750000000    -0.0378026  
C198     C      0.211070000000     0.469090000000     0.243650000000    -0.0324554  
C199     C      0.277100000000     0.492140000000     0.219010000000    -0.0086169  
C200     C      0.350320000000     0.493500000000     0.196000000000    -0.103837   
C201     C      0.216130000000     0.491350000000     0.279770000000    -0.0184097  
C202     C      0.143200000000     0.494540000000     0.301060000000    -0.117644   
C203     C      0.252100000000     0.513740000000     0.285490000000    -0.0324081  
C204     C      0.113270000000     0.491920000000     0.330960000000     0.0875925  
C205     C      0.163130000000     0.477100000000     0.381400000000     0.190016   
C206     C      0.282200000000     0.514320000000     0.255330000000    -0.0376466  
C207     C      0.308710000000     0.492890000000     0.186490000000     0.0534711  
C208     C      0.184100000000     0.490440000000     0.311570000000     0.0739375  
C209     C      0.332350000000     0.499700000000     0.802650000000    -0.14986    
C210     C      0.100460000000     0.471200000000     0.664240000000     0.0866385  
C211     C      0.152950000000     0.482450000000     0.615920000000     0.0865911  
C212     C      0.129100000000     0.469500000000     0.695740000000    -0.10358    
C213     C      0.204670000000     0.445400000000     0.748510000000    -0.0380614  
C214     C      0.235020000000     0.446720000000     0.778490000000    -0.0320588  
C215     C      0.201000000000     0.477100000000     0.720090000000    -0.00874967 
C216     C      0.182190000000     0.481690000000     0.646700000000    -0.105708   
C217     C      0.261840000000     0.480060000000     0.780910000000    -0.017899   
C218     C      0.288930000000     0.467100000000     0.851590000000    -0.115376   
C219     C      0.256970000000     0.512290000000     0.753070000000    -0.0318214  
C220     C      0.320020000000     0.470450000000     0.880480000000     0.0916326  
C221     C      0.362010000000     0.505340000000     0.832860000000     0.192515   
C222     C      0.227240000000     0.510600000000     0.722820000000    -0.0381156  
C223     C      0.170350000000     0.475460000000     0.687110000000     0.0549351  
C224     C      0.294950000000     0.481550000000     0.811970000000     0.073664   
C225     C      0.797880000000     0.521250000000     0.644340000000    -0.147722   
C226     C      0.600290000000     0.484880000000     0.820470000000     0.0862688  
C227     C      0.652660000000     0.490180000000     0.869780000000     0.0827456  
C228     C      0.629150000000     0.484120000000     0.789170000000    -0.102606   
C229     C      0.694200000000     0.503440000000     0.726810000000    -0.0374784  
C230     C      0.724070000000     0.503540000000     0.696450000000    -0.0316994  
C231     C      0.702260000000     0.486680000000     0.765430000000    -0.00790606 
C232     C      0.682160000000     0.490530000000     0.839280000000    -0.103767   
C233     C      0.763150000000     0.487670000000     0.704080000000    -0.0173076  
C234     C      0.825820000000     0.458940000000     0.670680000000    -0.116652   
C235     C      0.771120000000     0.470940000000     0.742720000000    -0.0317395  
C236     C      0.857130000000     0.461620000000     0.642250000000     0.096232   
C237     C      0.829720000000     0.523210000000     0.615730000000     0.193634   
C238     C      0.741020000000     0.469940000000     0.772680000000    -0.0375043  
C239     C      0.670790000000     0.487130000000     0.798260000000     0.0533932  
C240     C      0.795690000000     0.489050000000     0.672330000000     0.0741004  
C241     C      0.687550000000     0.636830000000     0.973710000000    -0.150788   
C242     C      0.822630000000     0.871530000000     0.994010000000     0.0847256  
C243     C      0.873550000000     0.820760000000     0.989060000000     0.0858829  
C244     C      0.792210000000     0.841890000000     0.994250000000    -0.104279   
C245     C      0.732490000000     0.775850000000     0.972120000000    -0.0370226  
C246     C      0.702320000000     0.745910000000     0.971740000000    -0.0312447  
C247     C      0.770310000000     0.768620000000     0.991000000000    -0.0129993  
C248     C      0.843850000000     0.790350000000     0.988570000000    -0.10371    
C249     C      0.709420000000     0.707820000000     0.989660000000    -0.0242411  
C250     C      0.637570000000     0.684200000000     0.998060000000    -0.122093   
C251     C      0.747100000000     0.700340000000     0.008380000000    -0.0265589  
C252     C      0.608150000000     0.653750000000     0.995460000000     0.0889708  
C253     C      0.656950000000     0.607310000000     0.968790000000     0.195024   
C254     C      0.777100000000     0.730500000000     0.009350000000    -0.0324959  
C255     C      0.802500000000     0.800630000000     0.991370000000     0.0546701  
C256     C      0.677880000000     0.675660000000     0.987880000000     0.0781383  
C257     C      0.685840000000     0.338080000000     0.981270000000    -0.148962   
C258     C      0.822270000000     0.104950000000     0.007330000000     0.0887748  
C259     C      0.872400000000     0.156070000000     0.998260000000     0.0858946  
C260     C      0.791660000000     0.134410000000     0.008990000000    -0.103612   
C261     C      0.739700000000     0.209310000000     0.033390000000    -0.0415641  
C262     C      0.709720000000     0.239530000000     0.031950000000    -0.0234664  
C263     C      0.769480000000     0.206920000000     0.002810000000    -0.00123796 
C264     C      0.842490000000     0.186190000000     0.999030000000    -0.109356   
C265     C      0.708620000000     0.267560000000     0.999530000000    -0.024706   
C266     C      0.636750000000     0.292100000000     0.009750000000    -0.111106   
C267     C      0.738150000000     0.264400000000     0.968600000000    -0.0275059  
C268     C      0.607190000000     0.322390000000     0.006310000000     0.0964607  
C269     C      0.655090000000     0.367160000000     0.975460000000     0.194487   
C270     C      0.768410000000     0.234710000000     0.970440000000    -0.0460254  
C271     C      0.801630000000     0.175450000000     0.004160000000     0.0590558  
C272     C      0.676800000000     0.299820000000     0.997550000000     0.0711445  
C273     C      0.295110000000     0.639850000000     0.019570000000    -0.151438   
C274     C      0.158920000000     0.873540000000     0.996820000000     0.0862224  
C275     C      0.108430000000     0.822680000000     0.004710000000     0.0889228  
C276     C      0.189540000000     0.844100000000     0.997210000000    -0.109457   
C277     C      0.250210000000     0.778800000000     0.019400000000    -0.0369033  
C278     C      0.280480000000     0.748940000000     0.019490000000    -0.0317833  
C279     C      0.211820000000     0.771030000000     0.001930000000    -0.00428788 
C280     C      0.138340000000     0.792510000000     0.005860000000    -0.103612   
C281     C      0.272890000000     0.710440000000     0.002680000000    -0.0143342  
C282     C      0.344360000000     0.686390000000     0.992250000000    -0.122667   
C283     C      0.234660000000     0.702470000000     0.985330000000    -0.0365206  
C284     C      0.373610000000     0.655720000000     0.994050000000     0.0899255  
C285     C      0.325650000000     0.610190000000     0.023620000000     0.198895   
C286     C      0.204580000000     0.732500000000     0.984650000000    -0.0416723  
C287     C      0.179540000000     0.802900000000     0.001710000000     0.0595367  
C288     C      0.304430000000     0.678310000000     0.004190000000     0.0809289  
C289     C      0.185460000000     0.139690000000     0.976440000000    -0.147158   
C290     C      0.321140000000     0.373940000000     0.998380000000     0.0799677  
C291     C      0.371150000000     0.322760000000     0.989780000000     0.084639   
C292     C      0.290360000000     0.344610000000     0.999130000000    -0.10967    
C293     C      0.229110000000     0.279350000000     0.977540000000    -0.035793   
C294     C      0.198920000000     0.249370000000     0.977100000000    -0.0339256  
C295     C      0.267520000000     0.271560000000     0.994950000000    -0.0152904  
C296     C      0.341080000000     0.292690000000     0.989880000000    -0.105499   
C297     C      0.206540000000     0.210700000000     0.993580000000    -0.0198383  
C298     C      0.134740000000     0.186050000000     0.001150000000    -0.100719   
C299     C      0.244710000000     0.202840000000     0.011160000000    -0.0294742  
C300     C      0.105700000000     0.155240000000     0.997890000000     0.074601   
C301     C      0.155280000000     0.109840000000     0.970940000000     0.192599   
C302     C      0.274740000000     0.232970000000     0.012100000000    -0.0313573  
C303     C      0.300010000000     0.303310000000     0.994750000000     0.05581    
C304     C      0.175250000000     0.178220000000     0.991120000000     0.0651858  
C305     C      0.686190000000     0.008150000000     0.643320000000    -0.143728   
C306     C      0.821360000000     0.980120000000     0.877270000000     0.0856247  
C307     C      0.871440000000     0.989870000000     0.826230000000     0.0834326  
C308     C      0.790710000000     0.979440000000     0.847800000000    -0.10416    
C309     C      0.730030000000     0.003350000000     0.782980000000    -0.0319619  
C310     C      0.699980000000     0.005020000000     0.752930000000    -0.0283028  
C311     C      0.768110000000     0.985470000000     0.774830000000    -0.0135561  
C312     C      0.841520000000     0.989840000000     0.796050000000    -0.104404   
C313     C      0.707470000000     0.989310000000     0.713890000000    -0.0210809  
C314     C      0.635760000000     0.982290000000     0.689490000000    -0.11466    
C315     C      0.745320000000     0.971300000000     0.705620000000    -0.0330104  
C316     C      0.606640000000     0.985940000000     0.658850000000     0.0877799  
C317     C      0.655880000000     0.013940000000     0.613630000000     0.19621    
C318     C      0.775210000000     0.969130000000     0.735830000000    -0.0364346  
C319     C      0.800490000000     0.984660000000     0.806580000000     0.0547236  
C320     C      0.676160000000     0.992610000000     0.681600000000     0.0698955  
C321     C      0.339650000000     0.998970000000     0.689100000000    -0.165227   
C322     C      0.105140000000     0.987130000000     0.823720000000     0.0876791  
C323     C      0.156740000000     0.991710000000     0.873940000000     0.0863126  
C324     C      0.134430000000     0.985080000000     0.793000000000    -0.104577   
C325     C      0.200950000000     0.003050000000     0.732270000000    -0.0329556  
C326     C      0.230960000000     0.001850000000     0.702170000000    -0.0258183  
C327     C      0.207610000000     0.984820000000     0.770480000000    -0.0127485  
C328     C      0.186800000000     0.990410000000     0.843950000000    -0.105607   
C329     C      0.268490000000     0.982950000000     0.709810000000    -0.0259571  
C330     C      0.293340000000     0.973480000000     0.638580000000    -0.121306   
C331     C      0.275250000000     0.964530000000     0.747730000000    -0.0305329  
C332     C      0.324150000000     0.976480000000     0.609590000000     0.0942154  
C333     C      0.369490000000     0.004370000000     0.658920000000     0.207787   
C334     C      0.245020000000     0.965120000000     0.777640000000    -0.0374447  
C335     C      0.175920000000     0.986750000000     0.802840000000     0.0555931  
C336     C      0.301160000000     0.984200000000     0.678880000000     0.0827096  
C337     C      0.293200000000     0.002050000000     0.341800000000    -0.145272   
C338     C      0.158170000000     0.981700000000     0.107200000000     0.0866288  
C339     C      0.108160000000     0.987960000000     0.158860000000     0.0858874  
C340     C      0.189030000000     0.980770000000     0.136410000000    -0.105237   
C341     C      0.249090000000     0.004510000000     0.201970000000    -0.0324717  
C342     C      0.279320000000     0.005840000000     0.231860000000    -0.0278633  
C343     C      0.211990000000     0.984390000000     0.209330000000    -0.0133324  
C344     C      0.138300000000     0.987480000000     0.188850000000    -0.104685   
C345     C      0.273040000000     0.987400000000     0.269920000000    -0.0218743  
C346     C      0.345430000000     0.984910000000     0.293670000000    -0.118029   
C347     C      0.236190000000     0.967000000000     0.277270000000    -0.0323472  
C348     C      0.374340000000     0.988770000000     0.324520000000     0.0924353  
C349     C      0.323050000000     0.008140000000     0.371860000000     0.199167   
C350     C      0.206070000000     0.965340000000     0.247250000000    -0.0365037  
C351     C      0.179390000000     0.983970000000     0.177850000000     0.0552397  
C352     C      0.304270000000     0.990670000000     0.302360000000     0.0716075  
C353     C      0.792780000000     0.982130000000     0.143010000000    -0.152862   
C354     C      0.657700000000     0.991980000000     0.377530000000     0.0860999  
C355     C      0.607530000000     0.986620000000     0.325890000000     0.0856206  
C356     C      0.688460000000     0.993440000000     0.348320000000    -0.106076   
C357     C      0.748470000000     0.972580000000     0.281950000000    -0.0373844  
C358     C      0.778860000000     0.973300000000     0.252250000000    -0.0309064  
C359     C      0.711170000000     0.992570000000     0.275430000000    -0.0131727  
C360     C      0.637610000000     0.987700000000     0.295850000000    -0.105316   
C361     C      0.772520000000     0.993740000000     0.215250000000    -0.0250786  
C362     C      0.844900000000     0.997530000000     0.191840000000    -0.126276   
C363     C      0.735430000000     0.013980000000     0.208750000000    -0.0266901  
C364     C      0.873900000000     0.994340000000     0.161040000000     0.093443   
C365     C      0.822720000000     0.976440000000     0.113010000000     0.196368   
C366     C      0.705120000000     0.013550000000     0.238590000000    -0.0333378  
C367     C      0.678670000000     0.991310000000     0.306880000000     0.0551966  
C368     C      0.803770000000     0.992250000000     0.182780000000     0.0795492  
C369     C      0.990250000000     0.335600000000     0.688180000000    -0.156539   
C370     C      0.004600000000     0.102410000000     0.823640000000     0.090713   
C371     C      0.999040000000     0.154820000000     0.872830000000     0.0785868  
C372     C      0.007990000000     0.131100000000     0.792480000000    -0.100515   
C373     C      0.988910000000     0.196380000000     0.730610000000    -0.0435508  
C374     C      0.988720000000     0.226140000000     0.700210000000    -0.0351177  
C375     C      0.007890000000     0.203710000000     0.768360000000    -0.000471754
C376     C      0.001890000000     0.184340000000     0.842330000000    -0.0890839  
C377     C      0.007120000000     0.264080000000     0.706970000000    -0.0155745  
C378     C      0.009490000000     0.289520000000     0.634980000000    -0.119308   
C379     C      0.026800000000     0.271230000000     0.744280000000    -0.0307178  
C380     C      0.003730000000     0.320610000000     0.606630000000     0.0985248  
C381     C      0.982110000000     0.365820000000     0.659020000000     0.195167   
C382     C      0.027390000000     0.241330000000     0.774540000000    -0.039276   
C383     C      0.006250000000     0.172710000000     0.801460000000     0.0492333  
C384     C      0.003280000000     0.297010000000     0.676310000000     0.0817302  
C385     C      0.968790000000     0.837900000000     0.797740000000    -0.150014   
C386     C      0.987250000000     0.602820000000     0.662290000000     0.0855614  
C387     C      0.980560000000     0.654190000000     0.612030000000     0.083349   
C388     C      0.987480000000     0.632140000000     0.693090000000    -0.104579   
C389     C      0.013480000000     0.705760000000     0.745390000000    -0.0332075  
C390     C      0.013440000000     0.736250000000     0.775120000000    -0.0266015  
C391     C      0.983160000000     0.704830000000     0.715260000000    -0.0133042  
C392     C      0.979940000000     0.684180000000     0.642100000000    -0.104998   
C393     C      0.982700000000     0.766090000000     0.775650000000    -0.0235693  
C394     C      0.994120000000     0.790650000000     0.847320000000    -0.120813   
C395     C      0.951960000000     0.764460000000     0.745780000000    -0.030707   
C396     C      0.993000000000     0.821480000000     0.876510000000     0.0883255  
C397     C      0.965280000000     0.867730000000     0.828160000000     0.195182   
C398     C      0.952420000000     0.734420000000     0.715740000000    -0.0376722  
C399     C      0.983630000000     0.673290000000     0.683100000000     0.0549919  
C400     C      0.982460000000     0.798730000000     0.807180000000     0.0769503  
C401     C      0.022160000000     0.640930000000     0.299650000000    -0.150129   
C402     C      0.996990000000     0.874530000000     0.162400000000     0.0863444  
C403     C      0.005250000000     0.823520000000     0.112020000000     0.0892848  
C404     C      0.997910000000     0.845190000000     0.193150000000    -0.1098     
C405     C      0.973000000000     0.770640000000     0.244620000000    -0.0418201  
C406     C      0.973540000000     0.740350000000     0.274520000000    -0.0356861  
C407     C      0.004010000000     0.772680000000     0.215260000000    -0.00446021 
C408     C      0.007150000000     0.793510000000     0.142070000000    -0.1045     
C409     C      0.005490000000     0.711830000000     0.276120000000    -0.0136115  
C410     C      0.992340000000     0.687290000000     0.347560000000    -0.120389   
C411     C      0.036850000000     0.714510000000     0.246940000000    -0.0313405  
C412     C      0.993130000000     0.656640000000     0.376940000000     0.0900223  
C413     C      0.025170000000     0.611400000000     0.330440000000     0.198601   
C414     C      0.035870000000     0.744320000000     0.216630000000    -0.0378444  
C415     C      0.003040000000     0.804210000000     0.183100000000     0.0601772  
C416     C      0.006200000000     0.679510000000     0.308040000000     0.079463   
C417     C      0.970880000000     0.140690000000     0.186690000000    -0.151292   
C418     C      0.994420000000     0.375080000000     0.323210000000     0.0836591  
C419     C      0.983660000000     0.323970000000     0.372980000000     0.0845175  
C420     C      0.994760000000     0.345800000000     0.292320000000    -0.105616   
C421     C      0.018810000000     0.271490000000     0.239930000000    -0.0333551  
C422     C      0.018340000000     0.241050000000     0.210090000000    -0.026888   
C423     C      0.988030000000     0.273310000000     0.269600000000    -0.0133958  
C424     C      0.983130000000     0.294050000000     0.342790000000    -0.105355   
C425     C      0.986770000000     0.212090000000     0.208960000000    -0.0235206  
C426     C      0.998760000000     0.186820000000     0.137440000000    -0.121319   
C427     C      0.955560000000     0.214680000000     0.238300000000    -0.0306157  
C428     C      0.996820000000     0.155960000000     0.108240000000     0.085699   
C429     C      0.966640000000     0.110990000000     0.156230000000     0.195474   
C430     C      0.956400000000     0.244650000000     0.268420000000    -0.0375285  
C431     C      0.988840000000     0.304800000000     0.301950000000     0.0545799  
C432     C      0.986110000000     0.179340000000     0.177430000000     0.0762998  
Eu1      Eu     0.989920000000     0.989160000000     0.064910000000     3.46799    
Eu2      Eu     0.990430000000     0.916300000000     0.993630000000     3.03836    
Eu3      Eu     0.988990000000     0.060950000000     0.991220000000     3.41917    
Eu4      Eu     0.917430000000     0.988600000000     0.993520000000     3.02475    
Eu5      Eu     0.062050000000     0.988690000000     0.991420000000     3.47887    
Eu6      Eu     0.989360000000     0.988060000000     0.920160000000     3.03975    
Eu7      Eu     0.992640000000     0.490630000000     0.420370000000     3.4477     
Eu8      Eu     0.990570000000     0.561370000000     0.493730000000     3.01199    
Eu9      Eu     0.988270000000     0.416810000000     0.491960000000     3.46719    
Eu10     Eu     0.917490000000     0.489790000000     0.489270000000     3.0575     
Eu11     Eu     0.061910000000     0.488730000000     0.496180000000     3.52441    
Eu12     Eu     0.987060000000     0.487310000000     0.565110000000     3.04538    
Eu13     Eu     0.489480000000     0.989410000000     0.420340000000     3.48288    
Eu14     Eu     0.417370000000     0.989140000000     0.492210000000     3.02343    
Eu15     Eu     0.562010000000     0.990560000000     0.493220000000     3.46565    
Eu16     Eu     0.491070000000     0.917450000000     0.492410000000     3.03648    
Eu17     Eu     0.488450000000     0.062220000000     0.492830000000     3.54154    
Eu18     Eu     0.489940000000     0.990310000000     0.564890000000     3.03553    
Eu19     Eu     0.489570000000     0.416400000000     0.992400000000     3.45967    
Eu20     Eu     0.562180000000     0.487740000000     0.990010000000     3.02805    
Eu21     Eu     0.417640000000     0.489860000000     0.995270000000     3.46829    
Eu22     Eu     0.486730000000     0.488130000000     0.920440000000     3.07122    
Eu23     Eu     0.493290000000     0.489260000000     0.064930000000     3.51626    
Eu24     Eu     0.490320000000     0.561150000000     0.992600000000     3.03606    
H1       H      0.953900000000     0.951590000000     0.060370000000    -0.188415   
H2       H      0.049080000000     0.049060000000     0.050620000000     0.409607   
H3       H      0.951520000000     0.055750000000     0.954310000000    -0.163375   
H4       H      0.056800000000     0.951120000000     0.955250000000    -0.186819   
H5       H      0.956110000000     0.528400000000     0.424060000000    -0.172533   
H6       H      0.050440000000     0.429400000000     0.435770000000     0.411794   
H7       H      0.949500000000     0.421350000000     0.527550000000    -0.171359   
H8       H      0.055780000000     0.524940000000     0.533800000000    -0.186396   
H9       H      0.452580000000     0.952210000000     0.425090000000    -0.181834   
H10      H      0.548110000000     0.049780000000     0.433190000000     0.414859   
H11      H      0.557990000000     0.953210000000     0.530390000000    -0.167718   
H12      H      0.451480000000     0.056920000000     0.529910000000    -0.186444   
H13      H      0.524800000000     0.420700000000     0.953510000000    -0.173713   
H14      H      0.432880000000     0.429970000000     0.054480000000     0.412295   
H15      H      0.421390000000     0.527120000000     0.958400000000    -0.181377   
H16      H      0.530480000000     0.525840000000     0.058340000000    -0.185612   
H17      H      0.490450000000     0.166420000000     0.407010000000     0.0165139  
H18      H      0.476320000000     0.315380000000     0.079650000000     0.0139747  
H19      H      0.541170000000     0.235670000000     0.296460000000     0.0361177  
H20      H      0.435410000000     0.241430000000     0.188710000000     0.0339758  
H21      H      0.472570000000     0.262990000000     0.130600000000     0.0553439  
H22      H      0.431950000000     0.188450000000     0.240830000000     0.0371533  
H23      H      0.517280000000     0.347060000000     0.220420000000     0.0649167  
H24      H      0.491030000000     0.218560000000     0.354930000000     0.0528408  
H25      H      0.476490000000     0.126330000000     0.262860000000     0.0536127  
H26      H      0.545950000000     0.287360000000     0.243700000000     0.0339161  
H27      H      0.476430000000     0.074530000000     0.315520000000     0.0202522  
H28      H      0.545770000000     0.408230000000     0.198180000000     0.0851622  
H29      H      0.550110000000     0.420680000000     0.146210000000     0.114669   
H30      H      0.497880000000     0.573500000000     0.170250000000     0.0184008  
H31      H      0.518220000000     0.817670000000     0.405180000000     0.0180706  
H32      H      0.465710000000     0.672750000000     0.259610000000     0.0359331  
H33      H      0.532570000000     0.804400000000     0.228590000000     0.0356868  
H34      H      0.522430000000     0.764320000000     0.354690000000     0.0563283  
H35      H      0.530770000000     0.751500000000     0.176500000000     0.036356   
H36      H      0.475380000000     0.845750000000     0.264090000000     0.0662247  
H37      H      0.502600000000     0.624740000000     0.222500000000     0.0526021  
H38      H      0.487070000000     0.717820000000     0.131060000000     0.0529799  
H39      H      0.469220000000     0.725120000000     0.311920000000     0.0352284  
H40      H      0.484350000000     0.665760000000     0.079180000000     0.0203231  
H41      H      0.448320000000     0.908150000000     0.284920000000     0.0845841  
H42      H      0.443680000000     0.921790000000     0.336510000000     0.103215   
H43      H      0.492270000000     0.813010000000     0.579640000000     0.0192525  
H44      H      0.489940000000     0.663320000000     0.907410000000     0.0189485  
H45      H      0.541470000000     0.736610000000     0.685100000000     0.0364899  
H46      H      0.452310000000     0.749810000000     0.806400000000     0.0343801  
H47      H      0.494440000000     0.717790000000     0.859430000000     0.0552132  
H48      H      0.450700000000     0.802320000000     0.753930000000     0.0363934  
H49      H      0.496340000000     0.632430000000     0.761080000000     0.0642136  
H50      H      0.494790000000     0.761700000000     0.632520000000     0.0527586  
H51      H      0.491900000000     0.856170000000     0.723580000000     0.0526966  
H52      H      0.543180000000     0.684190000000     0.737600000000     0.0348052  
H53      H      0.488810000000     0.906690000000     0.670290000000     0.0201441  
H54      H      0.490470000000     0.564710000000     0.772970000000     0.0822778  
H55      H      0.477370000000     0.542410000000     0.818460000000     0.105396   
H56      H      0.489440000000     0.167790000000     0.577540000000     0.0184101  
H57      H      0.493760000000     0.313400000000     0.906650000000     0.0163604  
H58      H      0.435390000000     0.237290000000     0.686440000000     0.0369709  
H59      H      0.536680000000     0.241120000000     0.798470000000     0.0348968  
H60      H      0.496990000000     0.261460000000     0.855260000000     0.0560125  
H61      H      0.542090000000     0.188910000000     0.745860000000     0.0373284  
H62      H      0.456600000000     0.347690000000     0.765420000000     0.0654415  
H63      H      0.487080000000     0.219860000000     0.629700000000     0.0535625  
H64      H      0.498780000000     0.127420000000     0.721980000000     0.0531099  
H65      H      0.428690000000     0.288370000000     0.739680000000     0.034275   
H66      H      0.500660000000     0.075780000000     0.669300000000     0.018805   
H67      H      0.429860000000     0.409760000000     0.787860000000     0.0868487  
H68      H      0.425930000000     0.422550000000     0.839810000000     0.112782   
H69      H      0.573050000000     0.168220000000     0.492310000000     0.0172202  
H70      H      0.901800000000     0.315120000000     0.495280000000     0.0159281  
H71      H      0.675140000000     0.255530000000     0.525590000000     0.036171   
H72      H      0.801990000000     0.227250000000     0.448570000000     0.0347343  
H73      H      0.850160000000     0.263250000000     0.498620000000     0.0564064  
H74      H      0.749160000000     0.175420000000     0.451790000000     0.035466   
H75      H      0.759910000000     0.349810000000     0.461100000000     0.0660906  
H76      H      0.624470000000     0.220650000000     0.489020000000     0.0518452  
H77      H      0.717770000000     0.128320000000     0.494710000000     0.0513515  
H78      H      0.727570000000     0.307920000000     0.520680000000     0.035628   
H79      H      0.665820000000     0.076690000000     0.495430000000     0.0149467  
H80      H      0.781640000000     0.413370000000     0.436860000000     0.0868744  
H81      H      0.833430000000     0.426210000000     0.431800000000     0.114532   
H82      H      0.579220000000     0.814510000000     0.482530000000     0.0186102  
H83      H      0.906880000000     0.665230000000     0.487730000000     0.0180808  
H84      H      0.684230000000     0.736340000000     0.432990000000     0.0363138  
H85      H      0.806470000000     0.754600000000     0.519900000000     0.0339763  
H86      H      0.859030000000     0.719740000000     0.480260000000     0.05472    
H87      H      0.754220000000     0.807210000000     0.518860000000     0.036023   
H88      H      0.760310000000     0.634670000000     0.483870000000     0.0636923  
H89      H      0.632330000000     0.763620000000     0.478670000000     0.0524657  
H90      H      0.722600000000     0.858850000000     0.476110000000     0.052736   
H91      H      0.736570000000     0.683710000000     0.433980000000     0.0342686  
H92      H      0.669010000000     0.909010000000     0.480640000000     0.0198631  
H93      H      0.772590000000     0.567330000000     0.496990000000     0.0827318  
H94      H      0.819100000000     0.548030000000     0.512970000000     0.110402   
H95      H      0.402190000000     0.166640000000     0.485150000000     0.0188736  
H96      H      0.073440000000     0.314270000000     0.480320000000     0.0143011  
H97      H      0.298850000000     0.250290000000     0.448110000000     0.0357889  
H98      H      0.172350000000     0.223790000000     0.526320000000     0.0356949  
H99      H      0.123940000000     0.261360000000     0.474330000000     0.0564469  
H100     H      0.225320000000     0.172040000000     0.524460000000     0.0364348  
H101     H      0.216230000000     0.343970000000     0.515430000000     0.0657611  
H102     H      0.349710000000     0.217990000000     0.485440000000     0.0524637  
H103     H      0.258400000000     0.123490000000     0.485580000000     0.052112   
H104     H      0.246410000000     0.302730000000     0.452070000000     0.0342692  
H105     H      0.311480000000     0.073110000000     0.488390000000     0.0162442  
H106     H      0.196060000000     0.406360000000     0.543490000000     0.0848714  
H107     H      0.144530000000     0.419400000000     0.550340000000     0.114467   
H108     H      0.313910000000     0.901720000000     0.502200000000     0.0191147  
H109     H      0.163990000000     0.575040000000     0.471620000000     0.0202095  
H110     H      0.227770000000     0.803580000000     0.458760000000     0.036367   
H111     H      0.257430000000     0.668770000000     0.519690000000     0.0348722  
H112     H      0.217170000000     0.625690000000     0.467750000000     0.0564866  
H113     H      0.309520000000     0.721490000000     0.521350000000     0.0359991  
H114     H      0.135680000000     0.715090000000     0.516880000000     0.0667684  
H115     H      0.262370000000     0.849350000000     0.501130000000     0.0524302  
H116     H      0.356100000000     0.759090000000     0.482980000000     0.0526726  
H117     H      0.175260000000     0.751130000000     0.458820000000     0.0361743  
H118     H      0.406960000000     0.811900000000     0.486040000000     0.0200319  
H119     H      0.073420000000     0.693610000000     0.544060000000     0.08759    
H120     H      0.059600000000     0.642060000000     0.547570000000     0.109871   
H121     H      0.582930000000     0.488940000000     0.166740000000     0.0151295  
H122     H      0.910120000000     0.462320000000     0.315970000000     0.0194494  
H123     H      0.681800000000     0.440540000000     0.250140000000     0.0349291  
H124     H      0.816090000000     0.502060000000     0.218660000000     0.0355209  
H125     H      0.860620000000     0.454230000000     0.262000000000     0.0567726  
H126     H      0.763170000000     0.501720000000     0.166600000000     0.0367854  
H127     H      0.767620000000     0.502830000000     0.339830000000     0.0651946  
H128     H      0.636400000000     0.484670000000     0.216860000000     0.0514893  
H129     H      0.723550000000     0.463180000000     0.120800000000     0.0538302  
H130     H      0.734430000000     0.442400000000     0.302500000000     0.0342432  
H131     H      0.669430000000     0.468960000000     0.071200000000     0.0229137  
H132     H      0.786780000000     0.533320000000     0.401290000000     0.0857088  
H133     H      0.837990000000     0.539500000000     0.415760000000     0.112264   
H134     H      0.411150000000     0.493830000000     0.173630000000     0.0182294  
H135     H      0.082160000000     0.496150000000     0.320850000000     0.0143983  
H136     H      0.309130000000     0.532670000000     0.260230000000     0.0360174  
H137     H      0.184000000000     0.450900000000     0.238780000000     0.0343609  
H138     H      0.134280000000     0.500340000000     0.269820000000     0.0546878  
H139     H      0.236630000000     0.451040000000     0.186700000000     0.0355411  
H140     H      0.225470000000     0.476510000000     0.360190000000     0.0649292  
H141     H      0.360580000000     0.493320000000     0.227340000000     0.0521446  
H142     H      0.265660000000     0.492750000000     0.136410000000     0.0514713  
H143     H      0.256640000000     0.531310000000     0.313040000000     0.0350493  
H144     H      0.316550000000     0.491020000000     0.083810000000     0.0149114  
H145     H      0.204700000000     0.455160000000     0.424790000000     0.0841242  
H146     H      0.153580000000     0.445170000000     0.436780000000     0.0982813  
H147     H      0.163590000000     0.487860000000     0.585140000000     0.0151901  
H148     H      0.314450000000     0.457390000000     0.910310000000     0.0186133  
H149     H      0.224510000000     0.535750000000     0.701670000000     0.0373356  
H150     H      0.237960000000     0.421250000000     0.799180000000     0.0344214  
H151     H      0.260280000000     0.453450000000     0.860500000000     0.0554829  
H152     H      0.184740000000     0.419200000000     0.746890000000     0.0371635  
H153     H      0.337800000000     0.511710000000     0.772400000000     0.064334   
H154     H      0.213940000000     0.486150000000     0.638920000000     0.0526942  
H155     H      0.118910000000     0.464700000000     0.726760000000     0.0541031  
H156     H      0.275990000000     0.539130000000     0.754680000000     0.0342646  
H157     H      0.068720000000     0.466990000000     0.672270000000     0.0224538  
H158     H      0.396800000000     0.543950000000     0.795540000000     0.084726   
H159     H      0.410540000000     0.545000000000     0.847460000000     0.104877   
H160     H      0.663300000000     0.492180000000     0.900950000000     0.0127733  
H161     H      0.879190000000     0.437150000000     0.641340000000     0.00749317 
H162     H      0.748370000000     0.455900000000     0.801570000000     0.0347616  
H163     H      0.716350000000     0.516070000000     0.666960000000     0.033674   
H164     H      0.825120000000     0.432890000000     0.690810000000     0.0556629  
H165     H      0.665010000000     0.517110000000     0.720020000000     0.0354419  
H166     H      0.776160000000     0.545990000000     0.645900000000     0.0649558  
H167     H      0.713740000000     0.493880000000     0.848120000000     0.0504007  
H168     H      0.618660000000     0.480630000000     0.758110000000     0.0522996  
H169     H      0.800890000000     0.459020000000     0.750320000000     0.0334522  
H170     H      0.568510000000     0.482560000000     0.811870000000     0.0199893  
H171     H      0.811500000000     0.580420000000     0.593790000000     0.0879018  
H172     H      0.858510000000     0.562920000000     0.574010000000     0.101916   
H173     H      0.905070000000     0.811220000000     0.986770000000     0.0192387  
H174     H      0.577750000000     0.661620000000     0.005680000000     0.0225004  
H175     H      0.805440000000     0.723970000000     0.024860000000     0.0367249  
H176     H      0.673710000000     0.752230000000     0.956570000000     0.034408   
H177     H      0.628920000000     0.714080000000     0.008950000000     0.061622   
H178     H      0.726320000000     0.804400000000     0.956910000000     0.0355136  
H179     H      0.718330000000     0.630480000000     0.963540000000     0.0658859  
H180     H      0.853410000000     0.759000000000     0.985440000000     0.0518429  
H181     H      0.760810000000     0.851480000000     0.997180000000     0.0508843  
H182     H      0.753180000000     0.671280000000     0.022680000000     0.0361103  
H183     H      0.812970000000     0.902970000000     0.996120000000     0.0143327  
H184     H      0.696250000000     0.567840000000     0.937360000000     0.0854966  
H185     H      0.644290000000     0.555010000000     0.933640000000     0.110013   
H186     H      0.903620000000     0.165850000000     0.993940000000     0.0190348  
H187     H      0.577030000000     0.315260000000     0.017730000000     0.0200746  
H188     H      0.790650000000     0.233030000000     0.946120000000     0.0385028  
H189     H      0.687780000000     0.241240000000     0.056510000000     0.0338184  
H190     H      0.628030000000     0.262700000000     0.021770000000     0.0562151  
H191     H      0.740050000000     0.188240000000     0.058760000000     0.0388437  
H192     H      0.716460000000     0.344800000000     0.970980000000     0.0647039  
H193     H      0.851310000000     0.217750000000     0.995530000000     0.0536756  
H194     H      0.760270000000     0.125030000000     0.012900000000     0.0551508  
H195     H      0.737700000000     0.284510000000     0.942500000000     0.0328613  
H196     H      0.813130000000     0.073450000000     0.010640000000     0.0231972  
H197     H      0.693600000000     0.404790000000     0.940880000000     0.0849971  
H198     H      0.641730000000     0.417590000000     0.937440000000     0.108534   
H199     H      0.077030000000     0.813070000000     0.007990000000     0.0207458  
H200     H      0.403600000000     0.663110000000     0.982370000000     0.0166606  
H201     H      0.175790000000     0.725570000000     0.970170000000     0.0357712  
H202     H      0.309560000000     0.755640000000     0.033560000000     0.0361334  
H203     H      0.352740000000     0.716010000000     0.980470000000     0.0562327  
H204     H      0.256770000000     0.807730000000     0.033700000000     0.0370572  
H205     H      0.264760000000     0.633930000000     0.031180000000     0.0678756  
H206     H      0.129040000000     0.761240000000     0.010360000000     0.0542089  
H207     H      0.220810000000     0.853720000000     0.993230000000     0.0521108  
H208     H      0.228210000000     0.673080000000     0.971880000000     0.0353983  
H209     H      0.168260000000     0.904920000000     0.992940000000     0.0182225  
H210     H      0.287660000000     0.571670000000     0.057750000000     0.0871474  
H211     H      0.339710000000     0.558640000000     0.059180000000     0.114531   
H212     H      0.402400000000     0.312920000000     0.985800000000     0.0183377  
H213     H      0.075130000000     0.162520000000     0.008020000000     0.0208301  
H214     H      0.303540000000     0.226010000000     0.026550000000     0.0352045  
H215     H      0.169940000000     0.256080000000     0.962830000000     0.0347363  
H216     H      0.125620000000     0.215630000000     0.012460000000     0.0531884  
H217     H      0.222540000000     0.308340000000     0.963360000000     0.0344759  
H218     H      0.216350000000     0.133850000000     0.966330000000     0.0647195  
H219     H      0.350130000000     0.261330000000     0.985540000000     0.05175    
H220     H      0.259210000000     0.354400000000     0.003670000000     0.0567405  
H221     H      0.251250000000     0.173390000000     0.024430000000     0.0356127  
H222     H      0.312030000000     0.405420000000     0.002010000000     0.02147    
H223     H      0.195300000000     0.071310000000     0.939230000000     0.0862271  
H224     H      0.143510000000     0.057960000000     0.934950000000     0.115002   
H225     H      0.902660000000     0.994330000000     0.816510000000     0.0161022  
H226     H      0.576180000000     0.975490000000     0.666120000000     0.0187799  
H227     H      0.803810000000     0.954420000000     0.728600000000     0.0343347  
H228     H      0.671210000000     0.019550000000     0.759920000000     0.0356534  
H229     H      0.626830000000     0.970370000000     0.718930000000     0.0551726  
H230     H      0.723640000000     0.016950000000     0.812330000000     0.03643    
H231     H      0.717020000000     0.018510000000     0.637560000000     0.0660728  
H232     H      0.850610000000     0.994710000000     0.764730000000     0.0509888  
H233     H      0.759560000000     0.974520000000     0.857420000000     0.0516446  
H234     H      0.751670000000     0.958610000000     0.675830000000     0.0344488  
H235     H      0.812250000000     0.975940000000     0.908730000000     0.0188116  
H236     H      0.695440000000     0.046560000000     0.575380000000     0.08663    
H237     H      0.643560000000     0.050320000000     0.562080000000     0.11438    
H238     H      0.166810000000     0.993860000000     0.905300000000     0.0134973  
H239     H      0.316970000000     0.965970000000     0.579110000000     0.0171219  
H240     H      0.250980000000     0.949980000000     0.806300000000     0.0355771  
H241     H      0.225280000000     0.016790000000     0.673300000000     0.035501   
H242     H      0.263690000000     0.962110000000     0.629620000000     0.0571984  
H243     H      0.172920000000     0.019140000000     0.725800000000     0.0369103  
H244     H      0.345350000000     0.009430000000     0.719910000000     0.0732947  
H245     H      0.218400000000     0.992590000000     0.853110000000     0.0508748  
H246     H      0.124420000000     0.981580000000     0.761780000000     0.0528551  
H247     H      0.303920000000     0.949530000000     0.754170000000     0.0343676  
H248     H      0.073480000000     0.985630000000     0.814490000000     0.0204862  
H249     H      0.407840000000     0.036440000000     0.698840000000     0.0873677  
H250     H      0.421650000000     0.040670000000     0.647280000000     0.11028    
H251     H      0.076870000000     0.991020000000     0.168910000000     0.0181383  
H252     H      0.405620000000     0.982380000000     0.316250000000     0.0122605  
H253     H      0.178230000000     0.948940000000     0.253740000000     0.0364064  
H254     H      0.307200000000     0.022300000000     0.225580000000     0.0351882  
H255     H      0.355270000000     0.976470000000     0.263330000000     0.0543396  
H256     H      0.254480000000     0.020130000000     0.173440000000     0.036089   
H257     H      0.261630000000     0.009170000000     0.348400000000     0.066796   
H258     H      0.129360000000     0.990660000000     0.220440000000     0.0526752  
H259     H      0.220270000000     0.977240000000     0.126450000000     0.0523228  
H260     H      0.230740000000     0.952160000000     0.306220000000     0.0349438  
H261     H      0.167250000000     0.979120000000     0.075560000000     0.0195292  
H262     H      0.280900000000     0.034000000000     0.412470000000     0.0870471  
H263     H      0.332290000000     0.041760000000     0.425780000000     0.112928   
H264     H      0.576200000000     0.983790000000     0.315890000000     0.0186081  
H265     H      0.905270000000     0.999430000000     0.169820000000     0.0114841  
H266     H      0.677070000000     0.029880000000     0.232860000000     0.036191   
H267     H      0.806900000000     0.956840000000     0.257780000000     0.0337292  
H268     H      0.854670000000     0.004700000000     0.222530000000     0.0602103  
H269     H      0.753910000000     0.955550000000     0.309650000000     0.0359572  
H270     H      0.761220000000     0.975150000000     0.136180000000     0.0662983  
H271     H      0.628660000000     0.985230000000     0.264200000000     0.0522603  
H272     H      0.719710000000     0.996830000000     0.358290000000     0.0516343  
H273     H      0.729920000000     0.030240000000     0.180580000000     0.0352253  
H274     H      0.666900000000     0.993960000000     0.409180000000     0.0168188  
H275     H      0.780490000000     0.951190000000     0.072080000000     0.0859806  
H276     H      0.831610000000     0.942160000000     0.059110000000     0.110407   
H277     H      0.995350000000     0.165340000000     0.903910000000     0.0203822  
H278     H      0.010730000000     0.313400000000     0.575170000000     0.0198551  
H279     H      0.043040000000     0.247800000000     0.802830000000     0.0374224  
H280     H      0.972800000000     0.220000000000     0.671980000000     0.034326   
H281     H      0.019450000000     0.259880000000     0.624580000000     0.0582734  
H282     H      0.973000000000     0.168120000000     0.724890000000     0.0365756  
H283     H      0.983230000000     0.341230000000     0.719970000000     0.0658523  
H284     H      0.999760000000     0.216080000000     0.850830000000     0.045471   
H285     H      0.012150000000     0.120550000000     0.761510000000     0.0538377  
H286     H      0.041560000000     0.300110000000     0.750130000000     0.0355917  
H287     H      0.006070000000     0.070630000000     0.814990000000     0.0219555  
H288     H      0.956230000000     0.404300000000     0.703070000000     0.0846438  
H289     H      0.946210000000     0.419200000000     0.652820000000     0.107407   
H290     H      0.977840000000     0.664120000000     0.580670000000     0.0167879  
H291     H      0.003970000000     0.813820000000     0.906700000000     0.0218131  
H292     H      0.928360000000     0.733980000000     0.693160000000     0.0365068  
H293     H      0.037870000000     0.736750000000     0.797250000000     0.0345661  
H294     H      0.004050000000     0.760590000000     0.856390000000     0.0601174  
H295     H      0.037710000000     0.683400000000     0.745450000000     0.0374682  
H296     H      0.958830000000     0.844920000000     0.767080000000     0.0650809  
H297     H      0.977110000000     0.715790000000     0.633250000000     0.0519539  
H298     H      0.990110000000     0.622610000000     0.724570000000     0.0529204  
H299     H      0.927120000000     0.786100000000     0.745750000000     0.0337182  
H300     H      0.990210000000     0.571290000000     0.671450000000     0.0193198  
H301     H      0.933200000000     0.907240000000     0.789380000000     0.0854549  
H302     H      0.931030000000     0.920630000000     0.841210000000     0.111102   
H303     H      0.008250000000     0.813800000000     0.080610000000     0.0211669  
H304     H      0.980230000000     0.663910000000     0.406470000000     0.0172518  
H305     H      0.060400000000     0.745620000000     0.194600000000     0.0379917  
H306     H      0.948540000000     0.738990000000     0.295970000000     0.0350358  
H307     H      0.980740000000     0.716940000000     0.355970000000     0.0560024  
H308     H      0.947910000000     0.792020000000     0.243940000000     0.0375862  
H309     H      0.034030000000     0.634130000000     0.269630000000     0.0663959  
H310     H      0.011090000000     0.762030000000     0.133200000000     0.0551906  
H311     H      0.994970000000     0.854570000000     0.224650000000     0.0536219  
H312     H      0.062550000000     0.693930000000     0.247670000000     0.0347999  
H313     H      0.992910000000     0.905920000000     0.171640000000     0.0188567  
H314     H      0.061430000000     0.573110000000     0.294210000000     0.0864512  
H315     H      0.060490000000     0.560350000000     0.346430000000     0.112095   
H316     H      0.979200000000     0.314120000000     0.404170000000     0.018211   
H317     H      0.008530000000     0.163010000000     0.078160000000     0.0174806  
H318     H      0.931940000000     0.245780000000     0.290530000000     0.0370303  
H319     H      0.043110000000     0.239860000000     0.188370000000     0.0336238  
H320     H      0.010020000000     0.216440000000     0.128480000000     0.0597664  
H321     H      0.043700000000     0.293100000000     0.240340000000     0.0363157  
H322     H      0.960160000000     0.134070000000     0.217190000000     0.0653841  
H323     H      0.978670000000     0.262570000000     0.351450000000     0.052547   
H324     H      0.998980000000     0.355300000000     0.261010000000     0.0519184  
H325     H      0.930070000000     0.193820000000     0.237850000000     0.0342136  
H326     H      0.998910000000     0.406490000000     0.314260000000     0.016248   
H327     H      0.932050000000     0.072910000000     0.194250000000     0.0860434  
H328     H      0.930330000000     0.060140000000     0.142080000000     0.113128   
N1       N      0.500160000000     0.361580000000     0.119560000000    -0.238107   
N2       N      0.483830000000     0.116450000000     0.365250000000    -0.221082   
N3       N      0.536440000000     0.402580000000     0.168270000000    -0.224259   
N4       N      0.493610000000     0.862790000000     0.364570000000    -0.234448   
N5       N      0.491040000000     0.615650000000     0.120650000000    -0.217762   
N6       N      0.457480000000     0.903070000000     0.314990000000    -0.222366   
N7       N      0.490360000000     0.614570000000     0.863220000000    -0.23017    
N8       N      0.490500000000     0.863800000000     0.620810000000    -0.215174   
N9       N      0.487350000000     0.568740000000     0.804410000000    -0.221372   
N10      N      0.472740000000     0.360810000000     0.866610000000    -0.235511   
N11      N      0.494780000000     0.117770000000     0.619410000000    -0.218842   
N12      N      0.438680000000     0.403610000000     0.817830000000    -0.223394   
N13      N      0.861450000000     0.363210000000     0.476310000000    -0.235107   
N14      N      0.615370000000     0.118400000000     0.494180000000    -0.221733   
N15      N      0.811830000000     0.406980000000     0.444700000000    -0.223633   
N16      N      0.862320000000     0.617020000000     0.490280000000    -0.230938   
N17      N      0.619970000000     0.865660000000     0.482280000000    -0.217183   
N18      N      0.804000000000     0.572060000000     0.499180000000    -0.223405   
N19      N      0.114900000000     0.360360000000     0.501730000000    -0.238559   
N20      N      0.360980000000     0.115880000000     0.486510000000    -0.218572   
N21      N      0.165680000000     0.401000000000     0.535640000000    -0.224529   
N22      N      0.118740000000     0.615070000000     0.496930000000    -0.234459   
N23      N      0.364390000000     0.860920000000     0.494090000000    -0.21497    
N24      N      0.078470000000     0.663780000000     0.534270000000    -0.222513   
N25      N      0.868090000000     0.487670000000     0.359380000000    -0.235605   
N26      N      0.622010000000     0.479260000000     0.115120000000    -0.218261   
N27      N      0.817110000000     0.524590000000     0.397130000000    -0.223577   
N28      N      0.122790000000     0.485240000000     0.371270000000    -0.237256   
N29      N      0.367830000000     0.492570000000     0.124580000000    -0.221652   
N30      N      0.174050000000     0.459840000000     0.417540000000    -0.221176   
N31      N      0.356720000000     0.488230000000     0.871060000000    -0.236445   
N32      N      0.112270000000     0.477930000000     0.624630000000    -0.21863    
N33      N      0.392930000000     0.531700000000     0.824670000000    -0.2238     
N34      N      0.858570000000     0.492720000000     0.614590000000    -0.236481   
N35      N      0.611940000000     0.487780000000     0.860550000000    -0.216685   
N36      N      0.833260000000     0.557260000000     0.592430000000    -0.225549   
N37      N      0.617670000000     0.615120000000     0.982360000000    -0.232041   
N38      N      0.863090000000     0.861120000000     0.991740000000    -0.215983   
N39      N      0.666360000000     0.573550000000     0.946720000000    -0.223355   
N40      N      0.616250000000     0.360060000000     0.990530000000    -0.237188   
N41      N      0.862350000000     0.115650000000     0.001650000000    -0.21269    
N42      N      0.663940000000     0.399640000000     0.951210000000    -0.22265    
N43      N      0.364270000000     0.617360000000     0.008020000000    -0.233656   
N44      N      0.118590000000     0.862930000000     0.000080000000    -0.213228   
N45      N      0.317080000000     0.576980000000     0.046800000000    -0.224071   
N46      N      0.115810000000     0.116930000000     0.984310000000    -0.234358   
N47      N      0.361320000000     0.363150000000     0.993930000000    -0.21993    
N48      N      0.165280000000     0.076530000000     0.948470000000    -0.223826   
N49      N      0.616590000000     0.000080000000     0.620650000000    -0.229986   
N50      N      0.861470000000     0.985380000000     0.866620000000    -0.21669    
N51      N      0.665540000000     0.036930000000     0.580540000000    -0.223269   
N52      N      0.362320000000     0.990640000000     0.619550000000    -0.237058   
N53      N      0.116150000000     0.990180000000     0.863970000000    -0.219038   
N54      N      0.402760000000     0.027100000000     0.668830000000    -0.224215   
N55      N      0.363400000000     0.998420000000     0.363840000000    -0.237295   
N56      N      0.117990000000     0.985430000000     0.118260000000    -0.220761   
N57      N      0.311520000000     0.027590000000     0.406570000000    -0.22386    
N58      N      0.863080000000     0.986050000000     0.121390000000    -0.235968   
N59      N      0.617460000000     0.988840000000     0.366470000000    -0.221588   
N60      N      0.811180000000     0.957130000000     0.078140000000    -0.222604   
N61      N      0.991210000000     0.358900000000     0.618190000000    -0.236915   
N62      N      0.999940000000     0.114100000000     0.863550000000    -0.218005   
N63      N      0.961720000000     0.399490000000     0.672070000000    -0.223094   
N64      N      0.980070000000     0.860140000000     0.867030000000    -0.2321     
N65      N      0.984110000000     0.613750000000     0.622000000000    -0.216199   
N66      N      0.943380000000     0.901700000000     0.819040000000    -0.223254   
N67      N      0.007830000000     0.618430000000     0.368280000000    -0.233295   
N68      N      0.000130000000     0.863770000000     0.122060000000    -0.212949   
N69      N      0.049030000000     0.578410000000     0.323060000000    -0.22366    
N70      N      0.982160000000     0.117890000000     0.117570000000    -0.236537   
N71      N      0.989090000000     0.364280000000     0.363320000000    -0.220185   
N72      N      0.943070000000     0.078090000000     0.164830000000    -0.224123   
O1       O      0.986830000000     0.099190000000     0.049070000000    -0.620368   
O2       O      0.995160000000     0.880330000000     0.053020000000    -0.567621   
O3       O      0.932060000000     0.989990000000     0.103320000000    -0.614946   
O4       O      0.048910000000     0.988040000000     0.101500000000    -0.625415   
O5       O      0.099640000000     0.986840000000     0.049630000000    -0.626804   
O6       O      0.880790000000     0.990080000000     0.052380000000    -0.573465   
O7       O      0.996780000000     0.932250000000     0.103580000000    -0.607446   
O8       O      0.986390000000     0.048640000000     0.100980000000    -0.625767   
O9       O      0.030600000000     0.949960000000     0.032860000000    -1.45846    
O10      O      0.950200000000     0.029350000000     0.032890000000    -1.44917    
O11      O      0.944410000000     0.942720000000     0.035120000000    -1.04746    
O12      O      0.031720000000     0.031270000000     0.033560000000    -1.61413    
O13      O      0.986750000000     0.878440000000     0.935560000000    -0.567585   
O14      O      0.994650000000     0.098020000000     0.932800000000    -0.602917   
O15      O      0.880570000000     0.929930000000     0.992490000000    -0.56807    
O16      O      0.100460000000     0.931510000000     0.997100000000    -0.610756   
O17      O      0.098790000000     0.047710000000     0.988110000000    -0.625775   
O18      O      0.880200000000     0.047030000000     0.997770000000    -0.568771   
O19      O      0.930420000000     0.987880000000     0.883660000000    -0.572213   
O20      O      0.047540000000     0.988870000000     0.882420000000    -0.571326   
O21      O      0.879590000000     0.986220000000     0.935400000000    -0.565947   
O22      O      0.099290000000     0.991980000000     0.933080000000    -0.618114   
O23      O      0.932010000000     0.878830000000     0.993000000000    -0.565066   
O24      O      0.931160000000     0.098510000000     0.996780000000    -0.607897   
O25      O      0.047200000000     0.098500000000     0.988040000000    -0.620663   
O26      O      0.049590000000     0.879890000000     0.996700000000    -0.570179   
O27      O      0.985850000000     0.929110000000     0.883820000000    -0.567979   
O28      O      0.994070000000     0.045970000000     0.882410000000    -0.571988   
O29      O      0.029570000000     0.028670000000     0.952010000000    -1.45621    
O30      O      0.950060000000     0.948580000000     0.953820000000    -1.36963    
O31      O      0.943010000000     0.029790000000     0.946330000000    -1.05785    
O32      O      0.031300000000     0.942120000000     0.946530000000    -1.04674    
O33      O      0.988120000000     0.380760000000     0.432550000000    -0.624705   
O34      O      0.997450000000     0.599490000000     0.436090000000    -0.573953   
O35      O      0.936440000000     0.487430000000     0.379700000000    -0.607763   
O36      O      0.053070000000     0.488790000000     0.386040000000    -0.627838   
O37      O      0.101780000000     0.490380000000     0.439420000000    -0.634055   
O38      O      0.883330000000     0.488140000000     0.428920000000    -0.579703   
O39      O      0.002020000000     0.549170000000     0.384220000000    -0.606759   
O40      O      0.991140000000     0.432780000000     0.382110000000    -0.621826   
O41      O      0.032320000000     0.528970000000     0.454740000000    -1.45904    
O42      O      0.951460000000     0.450050000000     0.450010000000    -1.46428    
O43      O      0.946160000000     0.536420000000     0.449520000000    -1.05977    
O44      O      0.032700000000     0.447320000000     0.452280000000    -1.63142    
O45      O      0.986490000000     0.597330000000     0.552870000000    -0.568667   
O46      O      0.990190000000     0.377680000000     0.549270000000    -0.612283   
O47      O      0.880820000000     0.548150000000     0.486980000000    -0.581515   
O48      O      0.100500000000     0.546340000000     0.494150000000    -0.6129     
O49      O      0.098110000000     0.429590000000     0.499070000000    -0.636411   
O50      O      0.879740000000     0.431670000000     0.484220000000    -0.577252   
O51      O      0.927190000000     0.486720000000     0.599910000000    -0.575637   
O52      O      0.044120000000     0.482210000000     0.604560000000    -0.564865   
O53      O      0.878190000000     0.494590000000     0.546630000000    -0.569248   
O54      O      0.097310000000     0.482710000000     0.555310000000    -0.622766   
O55      O      0.931580000000     0.598740000000     0.493730000000    -0.558356   
O56      O      0.930380000000     0.380090000000     0.482190000000    -0.612044   
O57      O      0.046340000000     0.379070000000     0.496840000000    -0.624725   
O58      O      0.049630000000     0.597820000000     0.494710000000    -0.568658   
O59      O      0.985230000000     0.545200000000     0.603310000000    -0.568158   
O60      O      0.989970000000     0.428070000000     0.600970000000    -0.574973   
O61      O      0.027920000000     0.447620000000     0.533170000000    -1.46934    
O62      O      0.948960000000     0.528260000000     0.531500000000    -1.36892    
O63      O      0.940990000000     0.447090000000     0.536160000000    -1.0655     
O64      O      0.029840000000     0.533790000000     0.541400000000    -1.05328    
O65      O      0.599340000000     0.989480000000     0.435040000000    -0.629143   
O66      O      0.380730000000     0.991960000000     0.432940000000    -0.570726   
O67      O      0.494890000000     0.931710000000     0.382470000000    -0.614025   
O68      O      0.486220000000     0.047710000000     0.382940000000    -0.623458   
O69      O      0.485990000000     0.099040000000     0.434130000000    -0.635303   
O70      O      0.493150000000     0.880440000000     0.433540000000    -0.570446   
O71      O      0.432140000000     0.995610000000     0.382160000000    -0.616467   
O72      O      0.548360000000     0.988100000000     0.383450000000    -0.627265   
O73      O      0.449710000000     0.029640000000     0.452260000000    -1.47049    
O74      O      0.530700000000     0.950810000000     0.452420000000    -1.46309    
O75      O      0.444280000000     0.943210000000     0.450780000000    -1.0559     
O76      O      0.531060000000     0.032190000000     0.450750000000    -1.63963    
O77      O      0.380110000000     0.988670000000     0.550720000000    -0.567184   
O78      O      0.599630000000     0.996620000000     0.551310000000    -0.611567   
O79      O      0.433020000000     0.879530000000     0.493490000000    -0.56583    
O80      O      0.430200000000     0.099330000000     0.487610000000    -0.616222   
O81      O      0.546570000000     0.100180000000     0.494220000000    -0.633044   
O82      O      0.550730000000     0.881670000000     0.488070000000    -0.568388   
O83      O      0.489480000000     0.932240000000     0.602380000000    -0.568046   
O84      O      0.492780000000     0.049030000000     0.601760000000    -0.571528   
O85      O      0.490650000000     0.880590000000     0.551490000000    -0.562945   
O86      O      0.493140000000     0.100220000000     0.550490000000    -0.61854    
O87      O      0.380960000000     0.930050000000     0.494170000000    -0.563469   
O88      O      0.600940000000     0.933890000000     0.486760000000    -0.611471   
O89      O      0.598360000000     0.049500000000     0.494390000000    -0.629245   
O90      O      0.379710000000     0.047420000000     0.489810000000    -0.571384   
O91      O      0.431350000000     0.988830000000     0.601960000000    -0.570478   
O92      O      0.548190000000     0.994580000000     0.602180000000    -0.574237   
O93      O      0.529510000000     0.030970000000     0.532250000000    -1.46999    
O94      O      0.450640000000     0.949720000000     0.532270000000    -1.36136    
O95      O      0.532230000000     0.944430000000     0.538840000000    -1.0639     
O96      O      0.443160000000     0.031120000000     0.538470000000    -1.05616    
O97      O      0.379770000000     0.431750000000     0.994910000000    -0.625917   
O98      O      0.598670000000     0.428910000000     0.991040000000    -0.574772   
O99      O      0.479760000000     0.378540000000     0.935240000000    -0.609747   
O100     O      0.494650000000     0.379350000000     0.050840000000    -0.626419   
O101     O      0.496640000000     0.430570000000     0.101960000000    -0.632416   
O102     O      0.480300000000     0.429460000000     0.883880000000    -0.577792   
O103     O      0.547350000000     0.377960000000     0.993910000000    -0.610298   
O104     O      0.430450000000     0.379940000000     0.992840000000    -0.623623   
O105     O      0.530700000000     0.448080000000     0.031520000000    -1.46429    
O106     O      0.447480000000     0.448750000000     0.954840000000    -1.46728    
O107     O      0.533610000000     0.446300000000     0.944810000000    -1.06519    
O108     O      0.449500000000     0.447360000000     0.036310000000    -1.63062    
O109     O      0.599710000000     0.546190000000     0.986810000000    -0.563891   
O110     O      0.380770000000     0.548120000000     0.003100000000    -0.606796   
O111     O      0.543620000000     0.487440000000     0.880620000000    -0.564452   
O112     O      0.552600000000     0.484260000000     0.100360000000    -0.620142   
O113     O      0.436240000000     0.491610000000     0.104650000000    -0.629012   
O114     O      0.426250000000     0.488210000000     0.886180000000    -0.58405    
O115     O      0.488990000000     0.597470000000     0.932960000000    -0.559835   
O116     O      0.490470000000     0.598160000000     0.051590000000    -0.565973   
O117     O      0.490320000000     0.545860000000     0.882970000000    -0.583942   
O118     O      0.490470000000     0.546940000000     0.102890000000    -0.616679   
O119     O      0.596780000000     0.488440000000     0.929970000000    -0.574358   
O120     O      0.376940000000     0.485610000000     0.939260000000    -0.611011   
O121     O      0.383140000000     0.491260000000     0.055260000000    -0.633523   
O122     O      0.601700000000     0.483430000000     0.047030000000    -0.566      
O123     O      0.548890000000     0.597770000000     0.987590000000    -0.571381   
O124     O      0.432350000000     0.598710000000     0.999110000000    -0.578987   
O125     O      0.451730000000     0.528800000000     0.034520000000    -1.46682    
O126     O      0.528190000000     0.527760000000     0.951400000000    -1.37086    
O127     O      0.446690000000     0.535150000000     0.948160000000    -1.05924    
O128     O      0.538160000000     0.534490000000     0.032350000000    -1.04933    


