data_structure

_audit_creation_method RASPA-1.0
_audit_creation_date 2023-5-19
_audit_author_name 'Poobodin Mano'

_cell_length_a    20.6824
_cell_length_b    20.5436
_cell_length_c    20.6015
_cell_angle_alpha 90
_cell_angle_beta  90
_cell_angle_gamma 90
_cell_volume      8753.39

_symmetry_cell_setting          triclinic
_symmetry_space_group_name_Hall 'P 1'
_symmetry_space_group_name_H-M  'P 1'
_symmetry_Int_Tables_number     1

_symmetry_equiv_pos_as_xyz 'x,y,z'

loop_
_atom_site_label
_atom_site_type_symbol
_atom_site_fract_x
_atom_site_fract_y
_atom_site_fract_z
_atom_site_charge
C1       C      0.006190000000     0.127220000000     0.182310000000     0.505952   
C2       C      0.043150000000     0.818240000000     0.184010000000     0.5044     
C3       C      0.867950000000     0.968740000000     0.188200000000     0.496963   
C4       C      0.177760000000     0.986530000000     0.180140000000     0.495202   
C5       C      0.022200000000     0.813620000000     0.873820000000     0.497856   
C6       C      0.028460000000     0.126270000000     0.871140000000     0.516246   
C7       C      0.870110000000     0.810290000000     0.035760000000     0.487768   
C8       C      0.182830000000     0.823970000000     0.026910000000     0.510608   
C9       C      0.166900000000     0.135240000000     0.016810000000     0.507266   
C10      C      0.859270000000     0.122700000000     0.021920000000     0.509328   
C11      C      0.860510000000     0.967270000000     0.877110000000     0.496353   
C12      C      0.171280000000     0.988610000000     0.868740000000     0.506762   
C13      C      0.010060000000     0.318120000000     0.376150000000     0.506247   
C14      C      0.039300000000     0.626210000000     0.374340000000     0.507731   
C15      C      0.867850000000     0.455780000000     0.369170000000     0.509466   
C16      C      0.175170000000     0.468650000000     0.380770000000     0.505825   
C17      C      0.998020000000     0.629200000000     0.684270000000     0.495966   
C18      C      0.012160000000     0.317140000000     0.686890000000     0.509703   
C19      C      0.862660000000     0.631020000000     0.514220000000     0.496664   
C20      C      0.172750000000     0.627880000000     0.539570000000     0.504504   
C21      C      0.167940000000     0.313620000000     0.540340000000     0.496831   
C22      C      0.860510000000     0.316000000000     0.516840000000     0.506122   
C23      C      0.853160000000     0.476970000000     0.680070000000     0.492096   
C24      C      0.165580000000     0.477230000000     0.693420000000     0.500206   
C25      C      0.677360000000     0.973650000000     0.379070000000     0.496623   
C26      C      0.369230000000     0.978110000000     0.368530000000     0.50364    
C27      C      0.540790000000     0.812590000000     0.378830000000     0.507104   
C28      C      0.506600000000     0.122340000000     0.371400000000     0.511773   
C29      C      0.358980000000     0.964190000000     0.682480000000     0.492172   
C30      C      0.669430000000     0.990490000000     0.689980000000     0.504117   
C31      C      0.366710000000     0.811750000000     0.529440000000     0.489192   
C32      C      0.361470000000     0.127260000000     0.516330000000     0.503171   
C33      C      0.667770000000     0.132340000000     0.538290000000     0.505987   
C34      C      0.677220000000     0.819510000000     0.533660000000     0.505641   
C35      C      0.513750000000     0.819010000000     0.687620000000     0.502236   
C36      C      0.524660000000     0.131870000000     0.682300000000     0.513417   
C37      C      0.357400000000     0.319330000000     0.042470000000     0.506293   
C38      C      0.368800000000     0.630430000000     0.032550000000     0.512759   
C39      C      0.365220000000     0.472410000000     0.191060000000     0.50847    
C40      C      0.360440000000     0.475890000000     0.879050000000     0.497656   
C41      C      0.680070000000     0.618100000000     0.028910000000     0.488142   
C42      C      0.665040000000     0.304260000000     0.026220000000     0.502294   
C43      C      0.528250000000     0.623950000000     0.188520000000     0.495106   
C44      C      0.510160000000     0.625810000000     0.878770000000     0.512634   
C45      C      0.509890000000     0.316150000000     0.874850000000     0.506023   
C46      C      0.493530000000     0.312200000000     0.185180000000     0.508881   
C47      C      0.674950000000     0.467300000000     0.186190000000     0.497279   
C48      C      0.669210000000     0.452500000000     0.873350000000     0.500928   
C49      C      0.469670000000     0.283540000000     0.299630000000    -0.00170754 
C50      C      0.454900000000     0.201090000000     0.213330000000    -0.00364867 
C51      C      0.510620000000     0.237010000000     0.339590000000    -0.00381513 
C52      C      0.491410000000     0.149480000000     0.253280000000     0.0093158  
C53      C      0.459310000000     0.085690000000     0.242090000000     0.0683009  
C54      C      0.524810000000     0.740570000000     0.219650000000    -0.00358472 
C55      C      0.518650000000     0.652790000000     0.304640000000    -0.00708931 
C56      C      0.566760000000     0.781190000000     0.265620000000    -0.00383052 
C57      C      0.561980000000     0.693750000000     0.349060000000     0.0114681  
C58      C      0.549730000000     0.673870000000     0.416820000000     0.0673723  
C59      C      0.500820000000     0.791540000000     0.802930000000    -0.00507239 
C60      C      0.518030000000     0.703090000000     0.717560000000    -0.00671711 
C61      C      0.525770000000     0.740520000000     0.850530000000     0.00119466 
C62      C      0.484130000000     0.658920000000     0.766590000000     0.0192763  
C63      C      0.413580000000     0.667450000000     0.762390000000     0.0532886  
C64      C      0.495200000000     0.201250000000     0.841150000000    -0.000826812
C65      C      0.496500000000     0.290220000000     0.758160000000    -0.00466212 
C66      C      0.539390000000     0.160650000000     0.797790000000    -0.00660462 
C67      C      0.542340000000     0.250140000000     0.715640000000     0.0115755  
C68      C      0.534320000000     0.271190000000     0.647580000000     0.0667253  
C69      C      0.697810000000     0.250040000000     0.539460000000    -0.00285124 
C70      C      0.780690000000     0.164340000000     0.561060000000    -0.00545467 
C71      C      0.746280000000     0.285610000000     0.495210000000    -0.00719246 
C72      C      0.826790000000     0.196640000000     0.512860000000     0.0112216  
C73      C      0.892790000000     0.176550000000     0.530620000000     0.0668732  
C74      C      0.793030000000     0.788700000000     0.545690000000    -0.00217543 
C75      C      0.706890000000     0.702730000000     0.536810000000    -0.00743465 
C76      C      0.836230000000     0.748160000000     0.500400000000    -0.0056902  
C77      C      0.748090000000     0.667460000000     0.486440000000     0.0128654  
C78      C      0.727250000000     0.599120000000     0.480030000000     0.0663473  
C79      C      0.329120000000     0.243860000000     0.509270000000    -0.00143439 
C80      C      0.247170000000     0.156280000000     0.495210000000    -0.00609332 
C81      C      0.282600000000     0.281420000000     0.553520000000    -0.00741967 
C82      C      0.199360000000     0.193510000000     0.538750000000     0.00854817 
C83      C      0.134320000000     0.176170000000     0.515440000000     0.0623677  
C84      C      0.255630000000     0.777620000000     0.500880000000    -0.00766435 
C85      C      0.336440000000     0.694740000000     0.541330000000    -0.00780309 
C86      C      0.202580000000     0.744260000000     0.540490000000    -0.00102543 
C87      C      0.282190000000     0.664370000000     0.582580000000     0.0111864  
C88      C      0.295770000000     0.596350000000     0.602140000000     0.0653524  
C89      C      0.838700000000     0.441840000000     0.252600000000    -0.00355894 
C90      C      0.756280000000     0.424860000000     0.339030000000    -0.00432228 
C91      C      0.790180000000     0.483570000000     0.214380000000    -0.00540825 
C92      C      0.709290000000     0.470720000000     0.304700000000     0.0113904  
C93      C      0.643130000000     0.452900000000     0.325130000000     0.069245   
C94      C      0.335910000000     0.490730000000     0.306730000000    -0.00389868 
C95      C      0.250350000000     0.485450000000     0.220680000000    -0.00304589 
C96      C      0.290900000000     0.453890000000     0.353460000000    -0.00437588 
C97      C      0.209150000000     0.442820000000     0.264890000000     0.0108081  
C98      C      0.141320000000     0.447020000000     0.242770000000     0.0617541  
C99      C      0.327240000000     0.475300000000     0.762930000000     0.0104655  
C100     C      0.246180000000     0.453010000000     0.851470000000    -0.00522023 
C101     C      0.275300000000     0.514670000000     0.727010000000    -0.0342226  
C102     C      0.194810000000     0.490780000000     0.812780000000     0.00938484 
C103     C      0.130450000000     0.466140000000     0.831500000000     0.0619693  
C104     C      0.784350000000     0.442980000000     0.839770000000    -0.00216574 
C105     C      0.696520000000     0.432100000000     0.757650000000    -0.00491769 
C106     C      0.820560000000     0.489670000000     0.794840000000    -0.00612593 
C107     C      0.733550000000     0.477110000000     0.710720000000     0.00921073 
C108     C      0.716560000000     0.456880000000     0.644140000000     0.0660855  
C109     C      0.796070000000     0.647290000000     0.012150000000    -0.00464391 
C110     C      0.710870000000     0.733820000000     0.017750000000    -0.00708475 
C111     C      0.843220000000     0.693040000000     0.048320000000    -0.00862211 
C112     C      0.754860000000     0.774650000000     0.061080000000     0.0111743  
C113     C      0.732640000000     0.842920000000     0.058580000000     0.0654323  
C114     C      0.774870000000     0.269700000000     0.056390000000    -0.00533527 
C115     C      0.694100000000     0.186810000000     0.016140000000    -0.00798618 
C116     C      0.827140000000     0.237750000000     0.015640000000    -0.000298095
C117     C      0.748940000000     0.154400000000     0.976950000000     0.0122022  
C118     C      0.735680000000     0.084840000000     0.963220000000     0.0666415  
C119     C      0.255100000000     0.664080000000     0.047510000000     0.00196116 
C120     C      0.343910000000     0.747050000000     0.049310000000    -0.00478928 
C121     C      0.213800000000     0.710020000000     0.007180000000    -0.00686244 
C122     C      0.301220000000     0.794160000000     0.010430000000     0.0103779  
C123     C      0.320890000000     0.861250000000     0.026960000000     0.06609    
C124     C      0.323050000000     0.203770000000     0.051080000000    -0.00207203 
C125     C      0.240810000000     0.292890000000     0.056440000000    -0.00653269 
C126     C      0.281120000000     0.167730000000     0.001790000000    -0.00672654 
C127     C      0.197870000000     0.255560000000     0.008060000000     0.0082324  
C128     C      0.129910000000     0.274440000000     0.019190000000     0.060871   
C129     C      0.824520000000     0.960320000000     0.763120000000    -0.00754512 
C130     C      0.743180000000     0.975980000000     0.854020000000    -0.0337156  
C131     C      0.784190000000     0.005460000000     0.720540000000     0.00170872 
C132     C      0.701390000000     0.016560000000     0.806880000000     0.0208867  
C133     C      0.633690000000     0.009580000000     0.827620000000     0.0647076  
C134     C      0.200750000000     0.001380000000     0.751730000000    -0.0028581  
C135     C      0.286400000000     0.999780000000     0.837480000000    -0.00507073 
C136     C      0.242110000000     0.955070000000     0.709830000000    -0.00666725 
C137     C      0.322050000000     0.947020000000     0.799530000000     0.0110342  
C138     C      0.389520000000     0.943670000000     0.821610000000     0.0657377  
C139     C      0.342170000000     0.982120000000     0.250820000000    -0.0349427  
C140     C      0.254660000000     0.975490000000     0.337510000000    -0.00797323 
C141     C      0.291860000000     0.014600000000     0.205610000000     0.00778451 
C142     C      0.212310000000     0.018170000000     0.294700000000     0.0133151  
C143     C      0.144840000000     0.014050000000     0.317230000000     0.0598598  
C144     C      0.710170000000     0.997860000000     0.265770000000    -0.00457725 
C145     C      0.794020000000     0.980030000000     0.351810000000    -0.00708302 
C146     C      0.752260000000     0.960690000000     0.217010000000    -0.0053263  
C147     C      0.833690000000     0.939570000000     0.303520000000     0.0115327  
C148     C      0.901790000000     0.938680000000     0.324360000000     0.0638218  
C149     C      0.002030000000     0.284800000000     0.802630000000    -0.00552811 
C150     C      0.998900000000     0.200870000000     0.714550000000    -0.00349746 
C151     C      0.047870000000     0.241340000000     0.841490000000    -0.00237994 
C152     C      0.045790000000     0.158290000000     0.752940000000     0.0115251  
C153     C      0.036220000000     0.090100000000     0.732320000000     0.0673734  
C154     C      0.984360000000     0.745530000000     0.715460000000    -0.00209996 
C155     C      0.979750000000     0.658310000000     0.799680000000    -0.00501834 
C156     C      0.032090000000     0.783740000000     0.757740000000    -0.00632554 
C157     C      0.030350000000     0.694350000000     0.840260000000     0.0104803  
C158     C      0.023850000000     0.673880000000     0.908650000000     0.0637652  
C159     C      0.069070000000     0.704240000000     0.211540000000    -0.0042085  
C160     C      0.047820000000     0.789030000000     0.299710000000    -0.00745806 
C161     C      0.040650000000     0.654470000000     0.258750000000    -5.81952e-05
C162     C      0.076540000000     0.736820000000     0.344460000000     0.0181181  
C163     C      0.147510000000     0.736580000000     0.338850000000     0.0502088  
C164     C      0.982730000000     0.205360000000     0.345550000000    -0.00361373 
C165     C      0.013660000000     0.289570000000     0.260080000000    -0.00753267 
C166     C      0.010090000000     0.155320000000     0.298110000000    -0.00252508 
C167     C      0.982150000000     0.241190000000     0.212930000000     0.0170446  
C168     C      0.911340000000     0.248120000000     0.214650000000     0.0535119  
Eu1      Eu     0.021640000000     0.972270000000     0.143020000000     3.43937    
Eu2      Eu     0.025140000000     0.856440000000     0.028970000000     2.99948    
Eu3      Eu     0.014120000000     0.087270000000     0.026010000000     3.55345    
Eu4      Eu     0.905400000000     0.967800000000     0.030680000000     3.00184    
Eu5      Eu     0.134420000000     0.976840000000     0.024960000000     3.54625    
Eu6      Eu     0.017760000000     0.970530000000     0.912100000000     3.10107    
Eu7      Eu     0.019450000000     0.472990000000     0.416310000000     3.50489    
Eu8      Eu     0.016890000000     0.588660000000     0.529370000000     3.0052     
Eu9      Eu     0.013700000000     0.357910000000     0.532610000000     3.5272     
Eu10     Eu     0.900230000000     0.473640000000     0.525670000000     3.10422    
Eu11     Eu     0.130880000000     0.472160000000     0.536700000000     3.51773    
Eu12     Eu     0.010590000000     0.473340000000     0.646240000000     3.00951    
Eu13     Eu     0.521150000000     0.968540000000     0.415290000000     3.471      
Eu14     Eu     0.402860000000     0.969860000000     0.526750000000     3.01187    
Eu15     Eu     0.633060000000     0.974060000000     0.534370000000     3.47993    
Eu16     Eu     0.520940000000     0.856620000000     0.532330000000     3.06688    
Eu17     Eu     0.514750000000     0.087320000000     0.528800000000     3.57645    
Eu18     Eu     0.515020000000     0.974710000000     0.645740000000     3.08791    
Eu19     Eu     0.403290000000     0.474040000000     0.034920000000     3.56918    
Eu20     Eu     0.522700000000     0.584110000000     0.032960000000     3.04319    
Eu21     Eu     0.513740000000     0.353130000000     0.032090000000     3.50704    
Eu22     Eu     0.519290000000     0.467740000000     0.147750000000     3.08032    
Eu23     Eu     0.516240000000     0.470400000000     0.917380000000     3.47506    
Eu24     Eu     0.633120000000     0.463450000000     0.030410000000     2.99149    
H1       H      0.966140000000     0.909620000000     0.137100000000    -0.167747   
H2       H      0.109780000000     0.073770000000     0.118700000000     0.41652    
H3       H      0.957450000000     0.075820000000     0.966340000000    -0.197959   
H4       H      0.127770000000     0.917790000000     0.966160000000    -0.194409   
H5       H      0.960090000000     0.533500000000     0.419130000000    -0.15407    
H6       H      0.111000000000     0.375600000000     0.441370000000     0.416466   
H7       H      0.952230000000     0.366550000000     0.588390000000    -0.184731   
H8       H      0.118090000000     0.530560000000     0.592880000000    -0.238276   
H9       H      0.462830000000     0.907720000000     0.421630000000    -0.165122   
H10      H      0.611630000000     0.068250000000     0.437040000000     0.412606   
H11      H      0.624640000000     0.916550000000     0.594910000000    -0.177277   
H12      H      0.454770000000     0.079670000000     0.586920000000    -0.191693   
H13      H      0.415260000000     0.531960000000     0.093300000000    -0.205521   
H14      H      0.417960000000     0.378190000000     0.940120000000     0.417567   
H15      H      0.572600000000     0.357890000000     0.091680000000    -0.188752   
H16      H      0.578410000000     0.526890000000     0.923680000000    -0.170854   
H17      H      0.562460000000     0.247540000000     0.329760000000     0.0343896  
H18      H      0.484450000000     0.334270000000     0.310920000000     0.0476107  
H19      H      0.541040000000     0.145760000000     0.232850000000     0.0348277  
H20      H      0.461130000000     0.190430000000     0.160780000000     0.044032   
H21      H      0.418270000000     0.277800000000     0.314540000000     0.0353307  
H22      H      0.402200000000     0.197360000000     0.224030000000     0.0346341  
H23      H      0.501740000000     0.248360000000     0.391570000000     0.044482   
H24      H      0.618340000000     0.770270000000     0.254840000000     0.0365661  
H25      H      0.540480000000     0.750620000000     0.169030000000     0.0423366  
H26      H      0.612910000000     0.680280000000     0.337960000000     0.0363019  
H27      H      0.528690000000     0.600370000000     0.313810000000     0.0501822  
H28      H      0.473840000000     0.757110000000     0.224440000000     0.0393552  
H29      H      0.467120000000     0.661850000000     0.317480000000     0.042938   
H30      H      0.558860000000     0.833450000000     0.254360000000     0.0443442  
H31      H      0.579500000000     0.742480000000     0.851610000000     0.0376697  
H32      H      0.525450000000     0.838260000000     0.814230000000     0.0531406  
H33      H      0.494910000000     0.607730000000     0.752880000000     0.0395972  
H34      H      0.570360000000     0.690650000000     0.716670000000     0.0404617  
H35      H      0.448160000000     0.798920000000     0.810920000000     0.0475751  
H36      H      0.498910000000     0.692520000000     0.668140000000     0.0476681  
H37      H      0.508610000000     0.753940000000     0.899930000000     0.0438169  
H38      H      0.590300000000     0.169000000000     0.813130000000     0.03904    
H39      H      0.505620000000     0.189090000000     0.892650000000     0.0404312  
H40      H      0.592550000000     0.263060000000     0.730140000000     0.0367339  
H41      H      0.506110000000     0.342870000000     0.750090000000     0.0438973  
H42      H      0.444250000000     0.187200000000     0.830990000000     0.0322549  
H43      H      0.445790000000     0.280540000000     0.742710000000     0.0342543  
H44      H      0.527850000000     0.108950000000     0.807130000000     0.0542723  
H45      H      0.736290000000     0.270580000000     0.444310000000     0.0340755  
H46      H      0.648200000000     0.258590000000     0.520620000000     0.046973   
H47      H      0.816490000000     0.176050000000     0.463990000000     0.0335899  
H48      H      0.790080000000     0.111040000000     0.562670000000     0.0444308  
H49      H      0.700780000000     0.271870000000     0.588770000000     0.0437684  
H50      H      0.790720000000     0.183780000000     0.610530000000     0.0397739  
H51      H      0.736750000000     0.338680000000     0.497960000000     0.0524911  
H52      H      0.829870000000     0.766850000000     0.450120000000     0.0373058  
H53      H      0.803330000000     0.841130000000     0.537460000000     0.0400431  
H54      H      0.737550000000     0.690650000000     0.438740000000     0.03644    
H55      H      0.654970000000     0.694010000000     0.526270000000     0.0543574  
H56      H      0.806760000000     0.777250000000     0.596620000000     0.0348735  
H57      H      0.717370000000     0.682080000000     0.585650000000     0.042718   
H58      H      0.887430000000     0.756700000000     0.514210000000     0.042011   
H59      H      0.293770000000     0.268210000000     0.604660000000     0.0383717  
H60      H      0.379470000000     0.254520000000     0.524820000000     0.0454286  
H61      H      0.204380000000     0.174160000000     0.588910000000     0.03757    
H62      H      0.238130000000     0.103090000000     0.499910000000     0.0441039  
H63      H      0.323220000000     0.262310000000     0.458860000000     0.0327685  
H64      H      0.237950000000     0.169430000000     0.443540000000     0.0346678  
H65      H      0.293100000000     0.334150000000     0.548030000000     0.0420559  
H66      H      0.198900000000     0.768970000000     0.588400000000     0.0368996  
H67      H      0.244700000000     0.830490000000     0.498290000000     0.0432476  
H68      H      0.281910000000     0.692320000000     0.628870000000     0.0403325  
H69      H      0.383200000000     0.690150000000     0.567670000000     0.0483305  
H70      H      0.253300000000     0.758470000000     0.450610000000     0.0473354  
H71      H      0.340400000000     0.667500000000     0.494830000000     0.0466962  
H72      H      0.155920000000     0.751250000000     0.514590000000     0.0414401  
H73      H      0.800700000000     0.535590000000     0.224980000000     0.036243   
H74      H      0.888440000000     0.459660000000     0.242530000000     0.0438695  
H75      H      0.718660000000     0.520770000000     0.323060000000     0.042028   
H76      H      0.747060000000     0.425200000000     0.392210000000     0.0533036  
H77      H      0.835250000000     0.390950000000     0.234650000000     0.0443253  
H78      H      0.747210000000     0.374270000000     0.321790000000     0.0412166  
H79      H      0.799490000000     0.476010000000     0.161830000000     0.0422829  
H80      H      0.304570000000     0.401530000000     0.352540000000     0.0304853  
H81      H      0.386670000000     0.476960000000     0.317900000000     0.044558   
H82      H      0.224620000000     0.391550000000     0.256890000000     0.0301558  
H83      H      0.240590000000     0.472080000000     0.169260000000     0.0438333  
H84      H      0.330910000000     0.543730000000     0.316520000000     0.0406977  
H85      H      0.235900000000     0.537260000000     0.227240000000     0.0413817  
H86      H      0.300160000000     0.472140000000     0.403380000000     0.041996   
H87      H      0.277820000000     0.564590000000     0.747960000000     0.0528526  
H88      H      0.375110000000     0.497990000000     0.753430000000     0.0424603  
H89      H      0.197070000000     0.542350000000     0.829120000000     0.0387998  
H90      H      0.236790000000     0.459830000000     0.904200000000     0.0412017  
H91      H      0.328000000000     0.425070000000     0.742870000000     0.0340717  
H92      H      0.240750000000     0.400090000000     0.841060000000     0.0318488  
H93      H      0.288490000000     0.523320000000     0.674190000000     0.109662   
H94      H      0.805920000000     0.540200000000     0.807500000000     0.0367836  
H95      H      0.795610000000     0.456030000000     0.890870000000     0.0408551  
H96      H      0.714670000000     0.527290000000     0.717760000000     0.0370085  
H97      H      0.643680000000     0.437470000000     0.749140000000     0.0452095  
H98      H      0.802640000000     0.392840000000     0.830950000000     0.0377257  
H99      H      0.709210000000     0.380600000000     0.746460000000     0.0390577  
H100     H      0.873000000000     0.485490000000     0.805590000000     0.0449453  
H101     H      0.843640000000     0.678750000000     0.100390000000     0.0377914  
H102     H      0.806800000000     0.596260000000     0.026500000000     0.0408071  
H103     H      0.747070000000     0.757920000000     0.111870000000     0.0356906  
H104     H      0.659630000000     0.743900000000     0.030730000000     0.0457293  
H105     H      0.805860000000     0.651500000000     0.959250000000     0.0376408  
H106     H      0.717870000000     0.748980000000     0.966320000000     0.0423624  
H107     H      0.892600000000     0.684330000000     0.028990000000     0.0483052  
H108     H      0.827950000000     0.261260000000     0.966990000000     0.0374624  
H109     H      0.785780000000     0.322490000000     0.060430000000     0.0436361  
H110     H      0.749080000000     0.178840000000     0.928740000000     0.0334046  
H111     H      0.647900000000     0.182350000000     0.988800000000     0.0445019  
H112     H      0.777330000000     0.249000000000     0.106130000000     0.0461032  
H113     H      0.688520000000     0.160830000000     0.063190000000     0.0430669  
H114     H      0.874400000000     0.247290000000     0.039520000000     0.0457983  
H115     H      0.222440000000     0.699270000000     0.954960000000     0.0417782  
H116     H      0.242510000000     0.613300000000     0.033900000000     0.0413501  
H117     H      0.312770000000     0.786810000000     0.958200000000     0.038367   
H118     H      0.395340000000     0.755590000000     0.035940000000     0.0452244  
H119     H      0.242430000000     0.670790000000     0.099560000000     0.0371025  
H120     H      0.338760000000     0.757910000000     0.102030000000     0.0414526  
H121     H      0.162360000000     0.698470000000     0.017480000000     0.0481471  
H122     H      0.296150000000     0.183270000000     0.952310000000     0.0337201  
H123     H      0.374580000000     0.192010000000     0.041490000000     0.0392858  
H124     H      0.210900000000     0.273050000000     0.958650000000     0.0323717  
H125     H      0.233070000000     0.346090000000     0.050130000000     0.0421011  
H126     H      0.311030000000     0.185290000000     0.100390000000     0.0315245  
H127     H      0.225620000000     0.280110000000     0.106710000000     0.0347942  
H128     H      0.291730000000     0.114910000000     0.005780000000     0.0437717  
H129     H      0.800680000000     0.056340000000     0.728870000000     0.037309   
H130     H      0.876290000000     0.967120000000     0.750350000000     0.0455332  
H131     H      0.714640000000     0.068500000000     0.814430000000     0.0321289  
H132     H      0.735470000000     0.997870000000     0.904540000000     0.111143   
H133     H      0.811580000000     0.909170000000     0.751140000000     0.0375138  
H134     H      0.723870000000     0.925320000000     0.855520000000     0.0531248  
H135     H      0.794530000000     0.993400000000     0.669040000000     0.0403927  
H136     H      0.223930000000     0.904670000000     0.717330000000     0.038023   
H137     H      0.148990000000     0.991200000000     0.742080000000     0.0481574  
H138     H      0.299830000000     0.899620000000     0.813290000000     0.0381383  
H139     H      0.296050000000     0.994030000000     0.890280000000     0.0481475  
H140     H      0.210610000000     0.052090000000     0.735660000000     0.0373698  
H141     H      0.305270000000     0.048290000000     0.822540000000     0.0408411  
H142     H      0.234030000000     0.967500000000     0.658000000000     0.0420271  
H143     H      0.299980000000     0.068120000000     0.207150000000     0.0273592  
H144     H      0.391000000000     0.005080000000     0.239770000000     0.111836   
H145     H      0.227670000000     0.069460000000     0.302960000000     0.0299027  
H146     H      0.244860000000     0.988070000000     0.389140000000     0.0451106  
H147     H      0.345940000000     0.930130000000     0.236020000000     0.051205   
H148     H      0.240900000000     0.923560000000     0.330470000000     0.0454797  
H149     H      0.302110000000     0.998740000000     0.155130000000     0.0451295  
H150     H      0.735450000000     0.909280000000     0.215340000000     0.0405989  
H151     H      0.658590000000     0.989650000000     0.253090000000     0.0418301  
H152     H      0.816220000000     0.888510000000     0.307720000000     0.0352525  
H153     H      0.801680000000     0.960460000000     0.401600000000     0.0431596  
H154     H      0.719930000000     0.050760000000     0.259770000000     0.0339952  
H155     H      0.811680000000     0.031230000000     0.351040000000     0.038916   
H156     H      0.743530000000     0.982380000000     0.168390000000     0.0506619  
H157     H      0.098360000000     0.255700000000     0.829590000000     0.0387233  
H158     H      0.013090000000     0.336410000000     0.813570000000     0.0506311  
H159     H      0.095610000000     0.172310000000     0.738090000000     0.0368049  
H160     H      0.006630000000     0.192240000000     0.661920000000     0.0552461  
H161     H      0.951730000000     0.274980000000     0.819020000000     0.0387867  
H162     H      0.948430000000     0.185940000000     0.726170000000     0.0407789  
H163     H      0.040360000000     0.251440000000     0.893860000000     0.0504629  
H164     H      0.081890000000     0.771550000000     0.741370000000     0.038238   
H165     H      0.994380000000     0.756200000000     0.663570000000     0.0406128  
H166     H      0.078690000000     0.677340000000     0.823670000000     0.0386669  
H167     H      0.983390000000     0.605060000000     0.808740000000     0.0478636  
H168     H      0.934720000000     0.763200000000     0.726470000000     0.0355493  
H169     H      0.930720000000     0.674050000000     0.815600000000     0.0386246  
H170     H      0.024710000000     0.836430000000     0.748280000000     0.0438386  
H171     H      0.987710000000     0.650470000000     0.250150000000     0.0381699  
H172     H      0.051700000000     0.691860000000     0.162010000000     0.0445816  
H173     H      0.064660000000     0.750410000000     0.395280000000     0.0395546  
H174     H      0.995840000000     0.795400000000     0.311990000000     0.0450078  
H175     H      0.122550000000     0.698990000000     0.210710000000     0.0430538  
H176     H      0.071520000000     0.836730000000     0.309510000000     0.0528332  
H177     H      0.061930000000     0.606010000000     0.247520000000     0.0465721  
H178     H      0.062920000000     0.150160000000     0.306710000000     0.0381353  
H179     H      0.997450000000     0.191370000000     0.395380000000     0.0547145  
H180     H      0.998230000000     0.254190000000     0.163110000000     0.0417741  
H181     H      0.066580000000     0.290710000000     0.250570000000     0.0347719  
H182     H      0.929030000000     0.203170000000     0.344270000000     0.0449461  
H183     H      0.995350000000     0.339410000000     0.249460000000     0.052644   
H184     H      0.987480000000     0.107440000000     0.309080000000     0.0542111  
N1       N      0.497770000000     0.167900000000     0.323280000000    -0.188995   
N2       N      0.476310000000     0.266960000000     0.230820000000    -0.186828   
N3       N      0.436650000000     0.023400000000     0.228100000000    -0.151586   
N4       N      0.553300000000     0.764260000000     0.334010000000    -0.185001   
N5       N      0.528130000000     0.670720000000     0.236010000000    -0.183315   
N6       N      0.537360000000     0.654070000000     0.478420000000    -0.10997    
N7       N      0.505740000000     0.673800000000     0.833180000000    -0.189641   
N8       N      0.511400000000     0.772480000000     0.734830000000    -0.18342    
N9       N      0.348770000000     0.676680000000     0.758760000000    -0.111467   
N10      N      0.532390000000     0.179470000000     0.728790000000    -0.185802   
N11      N      0.503380000000     0.270810000000     0.826700000000    -0.192037   
N12      N      0.526620000000     0.291720000000     0.585460000000    -0.113179   
N13      N      0.813970000000     0.268130000000     0.511070000000    -0.183716   
N14      N      0.713580000000     0.180200000000     0.543940000000    -0.189536   
N15      N      0.951830000000     0.154950000000     0.549070000000    -0.10688    
N16      N      0.817350000000     0.678680000000     0.502120000000    -0.183765   
N17      N      0.724060000000     0.772450000000     0.536670000000    -0.18603    
N18      N      0.706610000000     0.536900000000     0.472760000000    -0.104437   
N19      N      0.214170000000     0.264810000000     0.540200000000    -0.187157   
N20      N      0.314220000000     0.173790000000     0.510400000000    -0.186071   
N21      N      0.076480000000     0.157250000000     0.491200000000    -0.107312   
N22      N      0.218680000000     0.675100000000     0.550520000000    -0.1846     
N23      N      0.320720000000     0.763590000000     0.526990000000    -0.18044    
N24      N      0.302760000000     0.533540000000     0.626620000000    -0.152258   
N25      N      0.722250000000     0.469900000000     0.233340000000    -0.183205   
N26      N      0.822910000000     0.442940000000     0.322140000000    -0.185338   
N27      N      0.582740000000     0.436610000000     0.345060000000    -0.111745   
N28      N      0.222260000000     0.459860000000     0.334150000000    -0.189542   
N29      N      0.318900000000     0.478570000000     0.238220000000    -0.18661    
N30      N      0.079490000000     0.451060000000     0.221120000000    -0.1156     
N31      N      0.210080000000     0.488630000000     0.742050000000    -0.178434   
N32      N      0.312450000000     0.472440000000     0.833040000000    -0.189921   
N33      N      0.071310000000     0.445220000000     0.850740000000    -0.112863   
N34      N      0.804260000000     0.477570000000     0.725840000000    -0.181416   
N35      N      0.714720000000     0.445060000000     0.825460000000    -0.185863   
N36      N      0.699260000000     0.437240000000     0.583750000000    -0.105686   
N37      N      0.823850000000     0.762300000000     0.043740000000    -0.180432   
N38      N      0.727730000000     0.664470000000     0.023820000000    -0.182634   
N39      N      0.710630000000     0.905080000000     0.056280000000    -0.107088   
N40      N      0.812300000000     0.168000000000     0.008470000000    -0.186056   
N41      N      0.710280000000     0.255740000000     0.029410000000    -0.18537    
N42      N      0.727240000000     0.018860000000     0.950160000000    -0.141344   
N43      N      0.231390000000     0.778580000000     0.020150000000    -0.184811   
N44      N      0.324060000000     0.679080000000     0.038420000000    -0.187816   
N45      N      0.340080000000     0.922650000000     0.041680000000    -0.113581   
N46      N      0.212130000000     0.184350000000     0.011310000000    -0.188649   
N47      N      0.309090000000     0.274030000000     0.048300000000    -0.190825   
N48      N      0.067780000000     0.292880000000     0.029670000000    -0.115807   
N49      N      0.715180000000     0.000070000000     0.737890000000    -0.185775   
N50      N      0.811500000000     0.971610000000     0.832610000000    -0.178546   
N51      N      0.573230000000     0.001300000000     0.851350000000    -0.104105   
N52      N      0.311150000000     0.957460000000     0.728810000000    -0.182257   
N53      N      0.217250000000     0.995930000000     0.821290000000    -0.186271   
N54      N      0.450330000000     0.940220000000     0.845590000000    -0.105267   
N55      N      0.224560000000     0.001300000000     0.225740000000    -0.188856   
N56      N      0.323570000000     0.983230000000     0.320460000000    -0.179796   
N57      N      0.083610000000     0.011170000000     0.340390000000    -0.105632   
N58      N      0.821310000000     0.961760000000     0.235740000000    -0.182308   
N59      N      0.725260000000     0.979460000000     0.333310000000    -0.188952   
N60      N      0.963760000000     0.935920000000     0.345520000000    -0.106555   
N61      N      0.038340000000     0.172240000000     0.823600000000    -0.187077   
N62      N      0.007140000000     0.269600000000     0.733020000000    -0.186911   
N63      N      0.025870000000     0.028200000000     0.711850000000    -0.113784   
N64      N      0.025550000000     0.765660000000     0.827120000000    -0.18344    
N65      N      0.988200000000     0.675680000000     0.730870000000    -0.184509   
N66      N      0.018340000000     0.653880000000     0.971170000000    -0.114035   
N67      N      0.051530000000     0.671700000000     0.327420000000    -0.187495   
N68      N      0.052730000000     0.771610000000     0.230400000000    -0.18357    
N69      N      0.212610000000     0.735820000000     0.331080000000    -0.108938   
N70      N      0.999590000000     0.173580000000     0.229570000000    -0.189918   
N71      N      0.003470000000     0.271870000000     0.328840000000    -0.187338   
N72      N      0.846120000000     0.253930000000     0.217890000000    -0.11254    
O1       O      0.004500000000     0.146310000000     0.119620000000    -0.628285   
O2       O      0.039790000000     0.798720000000     0.121740000000    -0.570696   
O3       O      0.930660000000     0.972070000000     0.205730000000    -0.591684   
O4       O      0.116030000000     0.979930000000     0.199950000000    -0.61155    
O5       O      0.195780000000     0.983530000000     0.117210000000    -0.627061   
O6       O      0.848200000000     0.969270000000     0.125730000000    -0.558516   
O7       O      0.037480000000     0.880740000000     0.203420000000    -0.598115   
O8       O      0.013750000000     0.065140000000     0.201760000000    -0.622868   
O9       O      0.088420000000     0.912000000000     0.091420000000    -1.45597    
O10      O      0.954980000000     0.034840000000     0.093360000000    -1.45522    
O11      O      0.951670000000     0.895850000000     0.096380000000    -1.06103    
O12      O      0.084040000000     0.042830000000     0.092420000000    -1.65362    
O13      O      0.023460000000     0.796080000000     0.936670000000    -0.562081   
O14      O      0.025900000000     0.146450000000     0.933400000000    -0.604611   
O15      O      0.850210000000     0.872480000000     0.032820000000    -0.554165   
O16      O      0.198620000000     0.887440000000     0.029200000000    -0.619276   
O17      O      0.188510000000     0.073290000000     0.017590000000    -0.627282   
O18      O      0.842750000000     0.059420000000     0.026270000000    -0.555254   
O19      O      0.922270000000     0.968720000000     0.855650000000    -0.563477   
O20      O      0.109130000000     0.980940000000     0.850500000000    -0.564483   
O21      O      0.843920000000     0.963740000000     0.940040000000    -0.555214   
O22      O      0.191230000000     0.989000000000     0.931120000000    -0.608082   
O23      O      0.933280000000     0.792880000000     0.033990000000    -0.541134   
O24      O      0.920610000000     0.144310000000     0.025940000000    -0.625962   
O25      O      0.103940000000     0.151120000000     0.020960000000    -0.63025    
O26      O      0.121260000000     0.802270000000     0.027260000000    -0.562225   
O27      O      0.019760000000     0.876140000000     0.853880000000    -0.575784   
O28      O      0.023050000000     0.063630000000     0.853340000000    -0.573157   
O29      O      0.079090000000     0.037620000000     0.963080000000    -1.49579    
O30      O      0.957720000000     0.904790000000     0.966010000000    -1.35611    
O31      O      0.943250000000     0.034370000000     0.954680000000    -1.05608    
O32      O      0.087860000000     0.900760000000     0.953550000000    -1.0551     
O33      O      0.007940000000     0.298910000000     0.438750000000    -0.61325    
O34      O      0.035660000000     0.646160000000     0.436530000000    -0.568998   
O35      O      0.930580000000     0.460240000000     0.351820000000    -0.602412   
O36      O      0.113500000000     0.471390000000     0.361030000000    -0.634487   
O37      O      0.192990000000     0.470880000000     0.443960000000    -0.622453   
O38      O      0.846410000000     0.461650000000     0.430560000000    -0.577006   
O39      O      0.032100000000     0.563930000000     0.355290000000    -0.618662   
O40      O      0.017250000000     0.380260000000     0.356960000000    -0.626008   
O41      O      0.083690000000     0.535130000000     0.469150000000    -1.458      
O42      O      0.954930000000     0.409200000000     0.465360000000    -1.49504    
O43      O      0.945760000000     0.546710000000     0.460270000000    -1.08522    
O44      O      0.083760000000     0.404960000000     0.467920000000    -1.65227    
O45      O      0.003950000000     0.648540000000     0.621940000000    -0.559956   
O46      O      0.015270000000     0.298100000000     0.624490000000    -0.622081   
O47      O      0.843090000000     0.568520000000     0.517930000000    -0.562956   
O48      O      0.191630000000     0.565100000000     0.535570000000    -0.597912   
O49      O      0.188080000000     0.376280000000     0.542210000000    -0.623815   
O50      O      0.841250000000     0.378890000000     0.518940000000    -0.555594   
O51      O      0.914840000000     0.475250000000     0.701550000000    -0.552175   
O52      O      0.102140000000     0.477200000000     0.708830000000    -0.556516   
O53      O      0.837320000000     0.477780000000     0.616610000000    -0.565029   
O54      O      0.187530000000     0.471160000000     0.632030000000    -0.597278   
O55      O      0.925160000000     0.649380000000     0.518640000000    -0.561616   
O56      O      0.922840000000     0.297780000000     0.520190000000    -0.6048     
O57      O      0.105180000000     0.296560000000     0.537820000000    -0.630086   
O58      O      0.110460000000     0.647210000000     0.536410000000    -0.563104   
O59      O      0.000690000000     0.566740000000     0.703850000000    -0.564597   
O60      O      0.011080000000     0.379830000000     0.706180000000    -0.568967   
O61      O      0.076950000000     0.408010000000     0.598230000000    -1.45839    
O62      O      0.950200000000     0.537370000000     0.590660000000    -1.36521    
O63      O      0.938230000000     0.407610000000     0.601710000000    -1.06406    
O64      O      0.078360000000     0.546490000000     0.606530000000    -1.01108    
O65      O      0.694770000000     0.972700000000     0.442240000000    -0.62609    
O66      O      0.348420000000     0.975260000000     0.430590000000    -0.568557   
O67      O      0.537910000000     0.874820000000     0.357880000000    -0.606563   
O68      O      0.513530000000     0.059690000000     0.354010000000    -0.623797   
O69      O      0.508100000000     0.143240000000     0.433470000000    -0.63372    
O70      O      0.532990000000     0.795680000000     0.441270000000    -0.574257   
O71      O      0.431910000000     0.975060000000     0.351220000000    -0.601358   
O72      O      0.615580000000     0.972110000000     0.358270000000    -0.624463   
O73      O      0.456080000000     0.033090000000     0.463540000000    -1.47943    
O74      O      0.586020000000     0.908600000000     0.469320000000    -1.46735    
O75      O      0.448400000000     0.895210000000     0.462900000000    -1.06533    
O76      O      0.584780000000     0.039220000000     0.464360000000    -1.63907    
O77      O      0.341330000000     0.964560000000     0.619260000000    -0.558682   
O78      O      0.690110000000     0.987680000000     0.627910000000    -0.60721    
O79      O      0.429400000000     0.793990000000     0.533810000000    -0.556157   
O80      O      0.423320000000     0.147430000000     0.519220000000    -0.620731   
O81      O      0.605410000000     0.150280000000     0.532500000000    -0.632148   
O82      O      0.615150000000     0.799750000000     0.533730000000    -0.569793   
O83      O      0.511910000000     0.881980000000     0.706060000000    -0.565392   
O84      O      0.518970000000     0.069740000000     0.702560000000    -0.573162   
O85      O      0.518350000000     0.798820000000     0.625690000000    -0.573033   
O86      O      0.524100000000     0.149200000000     0.619410000000    -0.61556    
O87      O      0.346500000000     0.874160000000     0.525110000000    -0.559262   
O88      O      0.695640000000     0.882550000000     0.532580000000    -0.610424   
O89      O      0.688140000000     0.069960000000     0.539470000000    -0.625475   
O90      O      0.343360000000     0.064030000000     0.519020000000    -0.562251   
O91      O      0.420700000000     0.969880000000     0.702440000000    -0.563005   
O92      O      0.606770000000     0.984600000000     0.707000000000    -0.561684   
O93      O      0.578540000000     0.038700000000     0.593720000000    -1.48902    
O94      O      0.454690000000     0.908710000000     0.592890000000    -1.37686    
O95      O      0.583840000000     0.901580000000     0.607400000000    -1.06416    
O96      O      0.441000000000     0.038640000000     0.600830000000    -1.05617    
O97      O      0.418680000000     0.297590000000     0.037740000000    -0.625988   
O98      O      0.431880000000     0.646960000000     0.033420000000    -0.570276   
O99      O      0.345400000000     0.470520000000     0.128670000000    -0.616623   
O100     O      0.342710000000     0.476130000000     0.942130000000    -0.635738   
O101     O      0.422450000000     0.475690000000     0.858710000000    -0.613679   
O102     O      0.427760000000     0.471770000000     0.209370000000    -0.569059   
O103     O      0.347090000000     0.568630000000     0.029860000000    -0.624661   
O104     O      0.340770000000     0.382810000000     0.042070000000    -0.634319   
O105     O      0.455150000000     0.535550000000     0.969700000000    -1.47115    
O106     O      0.452630000000     0.407010000000     0.095810000000    -1.49067    
O107     O      0.456250000000     0.544550000000     0.107200000000    -1.05462    
O108     O      0.447600000000     0.405050000000     0.966710000000    -1.65474    
O109     O      0.618310000000     0.639040000000     0.031790000000    -0.564153   
O110     O      0.602110000000     0.287400000000     0.023460000000    -0.617352   
O111     O      0.525490000000     0.561060000000     0.207160000000    -0.562744   
O112     O      0.505920000000     0.563480000000     0.858920000000    -0.614179   
O113     O      0.512610000000     0.378940000000     0.856870000000    -0.638524   
O114     O      0.504310000000     0.373790000000     0.205200000000    -0.569648   
O115     O      0.693500000000     0.466400000000     0.123340000000    -0.558656   
O116     O      0.689720000000     0.454950000000     0.935470000000    -0.564538   
O117     O      0.612760000000     0.466480000000     0.205100000000    -0.572892   
O118     O      0.606580000000     0.456910000000     0.855470000000    -0.607123   
O119     O      0.528610000000     0.643580000000     0.126090000000    -0.564848   
O120     O      0.496420000000     0.292950000000     0.122770000000    -0.611453   
O121     O      0.510750000000     0.295540000000     0.937070000000    -0.628531   
O122     O      0.519150000000     0.644100000000     0.940800000000    -0.581053   
O123     O      0.697130000000     0.554620000000     0.028130000000    -0.552436   
O124     O      0.686340000000     0.366250000000     0.029550000000    -0.571114   
O125     O      0.577230000000     0.402230000000     0.966630000000    -1.45685    
O126     O      0.584940000000     0.528980000000     0.095260000000    -1.36625    
O127     O      0.589290000000     0.398100000000     0.104830000000    -1.04785    
O128     O      0.593020000000     0.539460000000     0.964850000000    -1.05932    


