data_structure

_audit_creation_method RASPA-1.0
_audit_creation_date 2023-5-19
_audit_author_name 'Poobodin Mano'

_cell_length_a    20.6284
_cell_length_b    20.7491
_cell_length_c    20.6541
_cell_angle_alpha 90
_cell_angle_beta  90
_cell_angle_gamma 90
_cell_volume      8840.38

_symmetry_cell_setting          triclinic
_symmetry_space_group_name_Hall 'P 1'
_symmetry_space_group_name_H-M  'P 1'
_symmetry_Int_Tables_number     1

_symmetry_equiv_pos_as_xyz 'x,y,z'

loop_
_atom_site_label
_atom_site_type_symbol
_atom_site_fract_x
_atom_site_fract_y
_atom_site_fract_z
_atom_site_charge
C1       C      0.993100000000     0.145320000000     0.152630000000     0.497519   
C2       C      0.013880000000     0.836650000000     0.148200000000     0.503361   
C3       C      0.839510000000     0.989250000000     0.152070000000     0.502545   
C4       C      0.150440000000     0.997070000000     0.150200000000     0.500384   
C5       C      0.993020000000     0.838890000000     0.839330000000     0.493609   
C6       C      0.997340000000     0.151730000000     0.843500000000     0.506799   
C7       C      0.842570000000     0.836090000000     0.986370000000     0.491929   
C8       C      0.152420000000     0.839200000000     0.006560000000     0.50924    
C9       C      0.148250000000     0.148990000000     0.987350000000     0.498357   
C10      C      0.837950000000     0.144030000000     0.016580000000     0.504402   
C11      C      0.839070000000     0.999670000000     0.842220000000     0.497906   
C12      C      0.151110000000     0.007160000000     0.840300000000     0.504044   
C13      C      0.989470000000     0.339760000000     0.339700000000     0.506299   
C14      C      0.009000000000     0.649070000000     0.339300000000     0.507225   
C15      C      0.849390000000     0.475290000000     0.329870000000     0.50637    
C16      C      0.152510000000     0.501050000000     0.343770000000     0.508318   
C17      C      0.979890000000     0.651200000000     0.646840000000     0.491321   
C18      C      0.002210000000     0.340030000000     0.650390000000     0.501244   
C19      C      0.837330000000     0.648290000000     0.481180000000     0.502058   
C20      C      0.150820000000     0.646710000000     0.490140000000     0.513807   
C21      C      0.148650000000     0.340160000000     0.504070000000     0.506867   
C22      C      0.836360000000     0.339800000000     0.484190000000     0.494086   
C23      C      0.832440000000     0.499450000000     0.643980000000     0.497044   
C24      C      0.144450000000     0.490250000000     0.656120000000     0.499855   
C25      C      0.649180000000     0.992690000000     0.344400000000     0.506849   
C26      C      0.337370000000     0.003670000000     0.344270000000     0.50996    
C27      C      0.500170000000     0.841690000000     0.338980000000     0.511324   
C28      C      0.492850000000     0.149660000000     0.347980000000     0.499763   
C29      C      0.339680000000     0.979940000000     0.655900000000     0.498368   
C30      C      0.650750000000     0.000890000000     0.651140000000     0.516745   
C31      C      0.337670000000     0.838370000000     0.490740000000     0.498018   
C32      C      0.336740000000     0.146610000000     0.502830000000     0.502224   
C33      C      0.646680000000     0.146900000000     0.500490000000     0.49996    
C34      C      0.649610000000     0.838410000000     0.490470000000     0.505964   
C35      C      0.498640000000     0.833440000000     0.650030000000     0.492345   
C36      C      0.499240000000     0.142660000000     0.658030000000     0.512737   
C37      C      0.337270000000     0.341180000000     0.000020000000     0.502033   
C38      C      0.650150000000     0.334830000000     0.010820000000     0.506062   
C39      C      0.491970000000     0.335040000000     0.846160000000     0.50696    
C40      C      0.498980000000     0.337100000000     0.154640000000     0.508814   
C41      C      0.655820000000     0.643050000000     0.996260000000     0.499569   
C42      C      0.344660000000     0.649910000000     0.004680000000     0.501028   
C43      C      0.649270000000     0.487780000000     0.841200000000     0.492469   
C44      C      0.653860000000     0.476940000000     0.153820000000     0.497506   
C45      C      0.346320000000     0.507840000000     0.157580000000     0.504758   
C46      C      0.337480000000     0.481010000000     0.847060000000     0.495021   
C47      C      0.500830000000     0.645750000000     0.843740000000     0.496573   
C48      C      0.502560000000     0.646830000000     0.154350000000     0.507037   
C49      C      0.506920000000     0.264750000000     0.319610000000    -0.00333919 
C50      C      0.529250000000     0.178860000000     0.238620000000    -0.0308029  
C51      C      0.476360000000     0.306790000000     0.267150000000    -0.0032816  
C52      C      0.500810000000     0.219770000000     0.183970000000     0.0985913  
C53      C      0.514010000000     0.678430000000     0.269160000000    -0.00239206 
C54      C      0.535650000000     0.757840000000     0.181220000000    -0.0305714  
C55      C      0.478390000000     0.729850000000     0.307780000000    -0.00259589 
C56      C      0.504160000000     0.812070000000     0.220750000000     0.0980307  
C57      C      0.511110000000     0.718010000000     0.678400000000    -0.00446115 
C58      C      0.535550000000     0.803410000000     0.759240000000    -0.0307822  
C59      C      0.479530000000     0.676670000000     0.730970000000    -0.00428721 
C60      C      0.506280000000     0.763110000000     0.814080000000     0.0966824  
C61      C      0.508540000000     0.304770000000     0.732030000000    -0.00358381 
C62      C      0.523290000000     0.223840000000     0.820180000000    -0.0279966  
C63      C      0.477100000000     0.254010000000     0.689430000000    -0.000226259
C64      C      0.498060000000     0.169740000000     0.776240000000     0.0964853  
C65      C      0.756250000000     0.177490000000     0.465290000000    -0.00354884 
C66      C      0.677490000000     0.261580000000     0.508930000000    -0.0283691  
C67      C      0.809150000000     0.225080000000     0.484970000000     0.00210891 
C68      C      0.719470000000     0.309190000000     0.470160000000     0.091901   
C69      C      0.764980000000     0.807140000000     0.503310000000    -0.00338626 
C70      C      0.677610000000     0.722960000000     0.496870000000    -0.0315915  
C71      C      0.809670000000     0.763090000000     0.463800000000    -0.00438781 
C72      C      0.721420000000     0.681940000000     0.453850000000     0.0968915  
C73      C      0.221580000000     0.176390000000     0.518170000000    -0.00451218 
C74      C      0.308940000000     0.257070000000     0.535840000000    -0.0290348  
C75      C      0.179280000000     0.227390000000     0.485810000000    -0.00304317 
C76      C      0.266820000000     0.311050000000     0.507500000000     0.0969425  
C77      C      0.222470000000     0.809620000000     0.474980000000    -0.00341175 
C78      C      0.309300000000     0.729440000000     0.453090000000    -0.0311316  
C79      C      0.182050000000     0.758770000000     0.509270000000    -0.00335841 
C80      C      0.268710000000     0.675230000000     0.482840000000     0.099041   
C81      C      0.766450000000     0.501300000000     0.183400000000    -0.00782198 
C82      C      0.689250000000     0.451030000000     0.266400000000    -0.0362551  
C83      C      0.822220000000     0.464130000000     0.214100000000     0.000742233
C84      C      0.748270000000     0.414150000000     0.294070000000     0.0995241  
C85      C      0.317920000000     0.522080000000     0.273650000000    -0.00379674 
C86      C      0.237030000000     0.545300000000     0.187900000000    -0.0317829  
C87      C      0.266820000000     0.486680000000     0.313830000000    -0.00523455 
C88      C      0.183220000000     0.512120000000     0.226560000000     0.0980551  
C89      C      0.304950000000     0.461710000000     0.732630000000    -0.00609527 
C90      C      0.221580000000     0.463620000000     0.819890000000    -0.0301692  
C91      C      0.259410000000     0.499690000000     0.688090000000    -0.0033159  
C92      C      0.174560000000     0.500520000000     0.775340000000     0.094507   
C93      C      0.764460000000     0.483310000000     0.807140000000    -0.00428672 
C94      C      0.675950000000     0.462010000000     0.727400000000    -0.0308639  
C95      C      0.800260000000     0.523210000000     0.756360000000    -0.003604   
C96      C      0.713210000000     0.498760000000     0.674530000000     0.0953499  
C97      C      0.728050000000     0.803170000000     0.969410000000    -0.00647782 
C98      C      0.816480000000     0.721040000000     0.968610000000    -0.0330545  
C99      C      0.685670000000     0.757400000000     0.009080000000    -0.00133412 
C100     C      0.774380000000     0.674580000000     0.007940000000     0.0981948  
C101     C      0.722240000000     0.171490000000     0.035550000000    -0.00441274 
C102     C      0.808070000000     0.252690000000     0.055480000000    -0.0304316  
C103     C      0.680750000000     0.221150000000     0.000030000000    -0.00224942 
C104     C      0.767470000000     0.305960000000     0.023620000000     0.0979155  
C105     C      0.315440000000     0.765730000000     0.994980000000    -0.00812453 
C106     C      0.230690000000     0.679790000000     0.986650000000    -0.031934   
C107     C      0.266320000000     0.809470000000     0.029760000000    -0.00198703 
C108     C      0.183320000000     0.721670000000     0.024690000000     0.0988145  
C109     C      0.262920000000     0.181800000000     0.969890000000    -0.00628007 
C110     C      0.175180000000     0.264500000000     0.972520000000    -0.0320613  
C111     C      0.306690000000     0.226440000000     0.009720000000    -0.00245879 
C112     C      0.218420000000     0.309520000000     0.012760000000     0.0958462  
C113     C      0.723800000000     0.015970000000     0.814450000000    -0.00159151 
C114     C      0.810000000000     0.038530000000     0.733500000000    -0.0313856  
C115     C      0.682740000000     0.982660000000     0.763450000000    -0.00422694 
C116     C      0.768470000000     0.010690000000     0.678750000000     0.100357   
C117     C      0.182870000000     0.018070000000     0.724310000000    -0.00438892 
C118     C      0.267210000000     0.019090000000     0.811160000000    -0.0297254  
C119     C      0.223670000000     0.969380000000     0.685860000000    -0.00511781 
C120     C      0.305720000000     0.967610000000     0.774500000000     0.0954704  
C121     C      0.264690000000     0.017040000000     0.179880000000    -0.00166871 
C122     C      0.176780000000     0.032520000000     0.260790000000    -0.0299535  
C123     C      0.307740000000     0.986240000000     0.231070000000    -0.0026792  
C124     C      0.219580000000     0.005960000000     0.315260000000     0.0980621  
C125     C      0.724030000000     0.974250000000     0.182330000000    -0.00587563 
C126     C      0.811040000000     0.968890000000     0.266200000000    -0.0313876  
C127     C      0.679810000000     0.009560000000     0.230250000000    -0.00195242 
C128     C      0.767940000000     0.005220000000     0.314170000000     0.0989514  
C129     C      0.024340000000     0.226750000000     0.682620000000    -0.00212478 
C130     C      0.021090000000     0.313810000000     0.765670000000    -0.030162   
C131     C      0.987520000000     0.181790000000     0.728490000000    -0.00662072 
C132     C      0.984540000000     0.269570000000     0.812590000000     0.0957028  
C133     C      0.966630000000     0.766830000000     0.676240000000    -0.00597126 
C134     C      0.952760000000     0.681300000000     0.759320000000    -0.0309118  
C135     C      0.004920000000     0.808090000000     0.724570000000    -0.00241976 
C136     C      0.991490000000     0.720570000000     0.808780000000     0.0952039  
C137     C      0.029410000000     0.721220000000     0.175320000000    -0.00239457 
C138     C      0.053790000000     0.805850000000     0.256700000000    -0.0307957  
C139     C      0.994590000000     0.680740000000     0.226130000000    -0.00574894 
C140     C      0.022770000000     0.765690000000     0.310920000000     0.098255   
C141     C      0.002730000000     0.176340000000     0.268470000000    -0.00256164 
C142     C      0.015290000000     0.258660000000     0.181020000000    -0.0297346  
C143     C      0.967260000000     0.226410000000     0.310270000000    -0.00588481 
C144     C      0.977680000000     0.307940000000     0.221260000000     0.0952279  
Eu1      Eu     0.995070000000     0.990590000000     0.110850000000     3.48182    
Eu2      Eu     0.997210000000     0.878850000000     0.994450000000     3.03501    
Eu3      Eu     0.992770000000     0.106680000000     0.996890000000     3.50119    
Eu4      Eu     0.879830000000     0.991030000000     0.996930000000     3.04303    
Eu5      Eu     0.110760000000     0.993500000000     0.994420000000     3.49811    
Eu6      Eu     0.995270000000     0.994870000000     0.880140000000     3.01194    
Eu7      Eu     0.997060000000     0.494680000000     0.380040000000     3.51918    
Eu8      Eu     0.993540000000     0.609100000000     0.493310000000     3.03532    
Eu9      Eu     0.992510000000     0.379520000000     0.495910000000     3.45912    
Eu10     Eu     0.878160000000     0.494010000000     0.489480000000     3.04576    
Eu11     Eu     0.108310000000     0.494740000000     0.499220000000     3.51329    
Eu12     Eu     0.989530000000     0.495120000000     0.609500000000     3.03126    
Eu13     Eu     0.491980000000     0.994100000000     0.384020000000     3.46485    
Eu14     Eu     0.377840000000     0.991930000000     0.499640000000     3.0075     
Eu15     Eu     0.607570000000     0.991730000000     0.498560000000     3.53106    
Eu16     Eu     0.493700000000     0.877360000000     0.495590000000     3.04025    
Eu17     Eu     0.491610000000     0.106330000000     0.502640000000     3.52036    
Eu18     Eu     0.494410000000     0.989180000000     0.613770000000     3.03891    
Eu19     Eu     0.495100000000     0.377370000000     0.999730000000     3.48463    
Eu20     Eu     0.612030000000     0.489250000000     0.997920000000     3.06302    
Eu21     Eu     0.382110000000     0.494900000000     0.000760000000     3.44486    
Eu22     Eu     0.494530000000     0.490530000000     0.884120000000     3.03505    
Eu23     Eu     0.499740000000     0.492440000000     0.114990000000     3.52737    
Eu24     Eu     0.499240000000     0.605990000000     0.999240000000     3.02388    
H1       H      0.938030000000     0.930060000000     0.102720000000    -0.180758   
H2       H      0.088630000000     0.087680000000     0.088720000000     0.414038   
H3       H      0.932250000000     0.100000000000     0.938550000000    -0.163754   
H4       H      0.103960000000     0.935020000000     0.934520000000    -0.175501   
H5       H      0.936910000000     0.553280000000     0.383830000000    -0.166998   
H6       H      0.090460000000     0.400010000000     0.403500000000     0.410381   
H7       H      0.931840000000     0.387730000000     0.553470000000    -0.171285   
H8       H      0.098070000000     0.553730000000     0.557030000000    -0.191943   
H9       H      0.432930000000     0.935340000000     0.390440000000    -0.16979    
H10      H      0.586120000000     0.087510000000     0.406390000000     0.421462   
H11      H      0.601100000000     0.932220000000     0.556680000000    -0.178947   
H12      H      0.433960000000     0.096070000000     0.561570000000    -0.199225   
H13      H      0.554190000000     0.383780000000     0.941200000000    -0.182519   
H14      H      0.401490000000     0.401530000000     0.096360000000     0.41023    
H15      H      0.389940000000     0.552170000000     0.940430000000    -0.172609   
H16      H      0.560220000000     0.548610000000     0.105370000000    -0.198176   
H17      H      0.422870000000     0.300420000000     0.269330000000     0.0255193  
H18      H      0.482500000000     0.275300000000     0.366430000000     0.0352946  
H19      H      0.450240000000     0.202970000000     0.175480000000     0.0106278  
H20      H      0.521430000000     0.127310000000     0.226190000000     0.046129   
H21      H      0.486610000000     0.357900000000     0.279570000000     0.034805   
H22      H      0.558850000000     0.278270000000     0.324410000000     0.0274918  
H23      H      0.582660000000     0.186570000000     0.240290000000     0.0353766  
H24      H      0.512070000000     0.204940000000     0.083850000000     0.0897899  
H25      H      0.581250000000     0.235250000000     0.123140000000     0.0996445  
H26      H      0.425750000000     0.726060000000     0.296720000000     0.0332367  
H27      H      0.491890000000     0.630860000000     0.280400000000     0.0380709  
H28      H      0.453790000000     0.818290000000     0.202380000000     0.0140517  
H29      H      0.528190000000     0.768490000000     0.129000000000     0.0497907  
H30      H      0.484410000000     0.718080000000     0.359900000000     0.0390986  
H31      H      0.565490000000     0.677280000000     0.285150000000     0.0346464  
H32      H      0.588930000000     0.758660000000     0.189880000000     0.0426126  
H33      H      0.511770000000     0.912050000000     0.206620000000     0.0902916  
H34      H      0.582340000000     0.875370000000     0.236660000000     0.0980834  
H35      H      0.426200000000     0.684190000000     0.728710000000     0.0347298  
H36      H      0.486400000000     0.707970000000     0.631630000000     0.0379898  
H37      H      0.456200000000     0.781250000000     0.822710000000     0.0152631  
H38      H      0.528940000000     0.855150000000     0.771580000000     0.0479045  
H39      H      0.488690000000     0.625340000000     0.718600000000     0.0387879  
H40      H      0.562710000000     0.703250000000     0.673450000000     0.0346966  
H41      H      0.588760000000     0.794480000000     0.757510000000     0.0426733  
H42      H      0.518090000000     0.777870000000     0.914140000000     0.0919245  
H43      H      0.586400000000     0.745620000000     0.874940000000     0.0963321  
H44      H      0.423630000000     0.257000000000     0.695800000000     0.0320361  
H45      H      0.486700000000     0.352270000000     0.719930000000     0.0378477  
H46      H      0.446960000000     0.159790000000     0.790520000000     0.0137536  
H47      H      0.509570000000     0.211770000000     0.870820000000     0.0472364  
H48      H      0.487740000000     0.266940000000     0.638310000000     0.0376308  
H49      H      0.561180000000     0.307060000000     0.720490000000     0.0347361  
H50      H      0.577250000000     0.224290000000     0.818320000000     0.0415744  
H51      H      0.510430000000     0.070060000000     0.789840000000     0.0895258  
H52      H      0.579600000000     0.110370000000     0.761660000000     0.096697   
H53      H      0.822430000000     0.216260000000     0.536420000000     0.0329476  
H54      H      0.772300000000     0.128330000000     0.479480000000     0.0321571  
H55      H      0.709120000000     0.357830000000     0.490480000000     0.0110829  
H56      H      0.686670000000     0.269460000000     0.561390000000     0.0392231  
H57      H      0.853110000000     0.214890000000     0.455460000000     0.0351301  
H58      H      0.751590000000     0.177650000000     0.411650000000     0.0307492  
H59      H      0.625440000000     0.272990000000     0.500940000000     0.0424189  
H60      H      0.650140000000     0.310520000000     0.396280000000     0.0788095  
H61      H      0.719680000000     0.352200000000     0.379460000000     0.154088   
H62      H      0.805680000000     0.777210000000     0.411990000000     0.0330436  
H63      H      0.776450000000     0.858020000000     0.491040000000     0.0351131  
H64      H      0.712990000000     0.698160000000     0.403120000000     0.0166047  
H65      H      0.626480000000     0.714190000000     0.482300000000     0.0512351  
H66      H      0.860360000000     0.772770000000     0.479090000000     0.0382889  
H67      H      0.776180000000     0.800170000000     0.555500000000     0.0334618  
H68      H      0.683100000000     0.706930000000     0.547990000000     0.0423857  
H69      H      0.720560000000     0.586280000000     0.421350000000     0.0932     
H70      H      0.705820000000     0.595600000000     0.505000000000     0.090926   
H71      H      0.185580000000     0.223320000000     0.432480000000     0.0250552  
H72      H      0.210150000000     0.128820000000     0.496200000000     0.0349932  
H73      H      0.283240000000     0.319290000000     0.456800000000     0.00895504 
H74      H      0.360500000000     0.268930000000     0.525670000000     0.0476516  
H75      H      0.127940000000     0.215320000000     0.496710000000     0.035909   
H76      H      0.208730000000     0.174060000000     0.570430000000     0.0340319  
H77      H      0.303310000000     0.256920000000     0.589470000000     0.0411879  
H78      H      0.281690000000     0.410830000000     0.517700000000     0.0866092  
H79      H      0.251200000000     0.372440000000     0.587180000000     0.0981213  
H80      H      0.191360000000     0.762470000000     0.562180000000     0.0339344  
H81      H      0.211470000000     0.857240000000     0.497040000000     0.0377517  
H82      H      0.287420000000     0.666500000000     0.532660000000     0.0143926  
H83      H      0.361380000000     0.717720000000     0.460410000000     0.0492592  
H84      H      0.130180000000     0.770910000000     0.501440000000     0.0360452  
H85      H      0.207690000000     0.811350000000     0.423200000000     0.0341081  
H86      H      0.300820000000     0.730360000000     0.399840000000     0.0419639  
H87      H      0.282800000000     0.575550000000     0.470930000000     0.0903863  
H88      H      0.249200000000     0.614680000000     0.403370000000     0.098957   
H89      H      0.827190000000     0.416860000000     0.189180000000     0.0317666  
H90      H      0.775810000000     0.504420000000     0.130550000000     0.0350606  
H91      H      0.752550000000     0.368980000000     0.265190000000     0.0119828  
H92      H      0.645760000000     0.419390000000     0.268470000000     0.0467956  
H93      H      0.867730000000     0.491810000000     0.206390000000     0.0336432  
H94      H      0.767440000000     0.551430000000     0.202440000000     0.0338327  
H95      H      0.679730000000     0.494110000000     0.296960000000     0.0422398  
H96      H      0.788320000000     0.383390000000     0.376530000000     0.110931   
H97      H      0.723380000000     0.433800000000     0.390030000000     0.0968645  
H98      H      0.272120000000     0.434110000000     0.304790000000     0.0226752  
H99      H      0.366050000000     0.500260000000     0.283880000000     0.0344179  
H100     H      0.176950000000     0.462800000000     0.206230000000     0.00669551 
H101     H      0.225630000000     0.540910000000     0.135470000000     0.0497317  
H102     H      0.277950000000     0.494840000000     0.365810000000     0.0325091  
H103     H      0.319450000000     0.573250000000     0.289680000000     0.0336394  
H104     H      0.236640000000     0.597710000000     0.199570000000     0.0433666  
H105     H      0.082740000000     0.520350000000     0.210920000000     0.0900669  
H106     H      0.119080000000     0.588520000000     0.246360000000     0.100528   
H107     H      0.271540000000     0.551730000000     0.692570000000     0.0331969  
H108     H      0.355760000000     0.474620000000     0.720340000000     0.0382682  
H109     H      0.180570000000     0.552700000000     0.786470000000     0.0155904  
H110     H      0.211990000000     0.478770000000     0.870600000000     0.0470682  
H111     H      0.270400000000     0.485310000000     0.637480000000     0.0354945  
H112     H      0.298630000000     0.409490000000     0.722250000000     0.0336498  
H113     H      0.210690000000     0.411180000000     0.816570000000     0.040495   
H114     H      0.074860000000     0.517790000000     0.784920000000     0.0935016  
H115     H      0.096130000000     0.436350000000     0.774250000000     0.0961929  
H116     H      0.785400000000     0.574430000000     0.762230000000     0.0320962  
H117     H      0.775280000000     0.503630000000     0.855750000000     0.03462    
H118     H      0.693660000000     0.548770000000     0.673400000000     0.0147536  
H119     H      0.623190000000     0.467610000000     0.718060000000     0.0503947  
H120     H      0.852920000000     0.520890000000     0.767290000000     0.0386351  
H121     H      0.783360000000     0.433130000000     0.805650000000     0.035894   
H122     H      0.687110000000     0.409710000000     0.722760000000     0.042375   
H123     H      0.700180000000     0.499370000000     0.573760000000     0.0880764  
H124     H      0.725200000000     0.424900000000     0.605680000000     0.0947323  
H125     H      0.692080000000     0.769320000000     0.061210000000     0.0338512  
H126     H      0.715630000000     0.853530000000     0.982870000000     0.0391986  
H127     H      0.786510000000     0.682410000000     0.059900000000     0.015164   
H128     H      0.867920000000     0.711990000000     0.981730000000     0.0482548  
H129     H      0.634340000000     0.767730000000     0.996610000000     0.0363297  
H130     H      0.715940000000     0.796690000000     0.917330000000     0.0332248  
H131     H      0.810480000000     0.709670000000     0.916280000000     0.0392255  
H132     H      0.784250000000     0.575740000000     0.027190000000     0.0917377  
H133     H      0.777020000000     0.595280000000     0.944380000000     0.0943447  
H134     H      0.688500000000     0.214950000000     0.947110000000     0.0319276  
H135     H      0.711570000000     0.123060000000     0.015200000000     0.0390029  
H136     H      0.787140000000     0.313720000000     0.974010000000     0.0145495  
H137     H      0.860230000000     0.264500000000     0.048960000000     0.0509958  
H138     H      0.629030000000     0.209720000000     0.009720000000     0.0352406  
H139     H      0.707730000000     0.171190000000     0.087440000000     0.0329812  
H140     H      0.798530000000     0.253030000000     0.108560000000     0.0433482  
H141     H      0.781620000000     0.405870000000     0.033440000000     0.092405   
H142     H      0.744950000000     0.368740000000     0.100400000000     0.0984723  
H143     H      0.274210000000     0.804560000000     0.082810000000     0.0339013  
H144     H      0.364540000000     0.775920000000     0.014670000000     0.0391531  
H145     H      0.190190000000     0.710000000000     0.076890000000     0.015195   
H146     H      0.219610000000     0.628470000000     0.997510000000     0.0503503  
H147     H      0.277660000000     0.860180000000     0.016740000000     0.0380119  
H148     H      0.315830000000     0.778700000000     0.942730000000     0.0351415  
H149     H      0.222180000000     0.687210000000     0.933960000000     0.0423144  
H150     H      0.083180000000     0.714240000000     0.040720000000     0.0974181  
H151     H      0.106150000000     0.714910000000     0.958380000000     0.0932127  
H152     H      0.301670000000     0.213060000000     0.061630000000     0.0245011  
H153     H      0.275170000000     0.131070000000     0.982010000000     0.0367833  
H154     H      0.207110000000     0.299840000000     0.064590000000     0.00656727 
H155     H      0.123900000000     0.273500000000     0.986350000000     0.04569    
H156     H      0.357620000000     0.216300000000     0.995530000000     0.0357703  
H157     H      0.274140000000     0.189190000000     0.917750000000     0.0361881  
H158     H      0.180410000000     0.277250000000     0.920440000000     0.0413737  
H159     H      0.210010000000     0.407610000000     0.035820000000     0.0884064  
H160     H      0.214860000000     0.390850000000     0.952260000000     0.0982189  
H161     H      0.691550000000     0.929850000000     0.766570000000     0.0335451  
H162     H      0.713120000000     0.993500000000     0.862140000000     0.0373289  
H163     H      0.787310000000     0.961570000000     0.667820000000     0.0132332  
H164     H      0.861840000000     0.030820000000     0.721020000000     0.0495041  
H165     H      0.631070000000     0.990910000000     0.776260000000     0.0360345  
H166     H      0.709350000000     0.067580000000     0.816900000000     0.0331868  
H167     H      0.802310000000     0.091620000000     0.735690000000     0.0430031  
H168     H      0.781680000000     0.026040000000     0.578940000000     0.0912276  
H169     H      0.746450000000     0.091060000000     0.620300000000     0.0986478  
H170     H      0.206030000000     0.920170000000     0.697960000000     0.0333084  
H171     H      0.130760000000     0.009530000000     0.713800000000     0.0376297  
H172     H      0.286520000000     0.920060000000     0.790630000000     0.0166609  
H173     H      0.276370000000     0.013830000000     0.863910000000     0.050033   
H174     H      0.214240000000     0.977050000000     0.633500000000     0.0384354  
H175     H      0.195120000000     0.067260000000     0.706760000000     0.0345054  
H176     H      0.285270000000     0.067450000000     0.796390000000     0.0419247  
H177     H      0.400150000000     0.930770000000     0.778210000000     0.0964717  
H178     H      0.395300000000     0.015490000000     0.783710000000     0.093203   
H179     H      0.303150000000     0.932970000000     0.227020000000     0.0333595  
H180     H      0.276960000000     0.995420000000     0.132170000000     0.0350808  
H181     H      0.204310000000     0.955260000000     0.324320000000     0.0153899  
H182     H      0.125510000000     0.021070000000     0.272750000000     0.0473621  
H183     H      0.358730000000     0.998650000000     0.218950000000     0.0371834  
H184     H      0.275840000000     0.069450000000     0.177530000000     0.0277164  
H185     H      0.180920000000     0.086040000000     0.260120000000     0.034106   
H186     H      0.204360000000     0.016910000000     0.415270000000     0.0922463  
H187     H      0.235260000000     0.085550000000     0.376590000000     0.0946842  
H188     H      0.684340000000     0.062240000000     0.221310000000     0.0279092  
H189     H      0.712630000000     0.991700000000     0.132740000000     0.0391327  
H190     H      0.779690000000     0.057380000000     0.309180000000     0.0108332  
H191     H      0.862420000000     0.981110000000     0.276850000000     0.0491382  
H192     H      0.628980000000     0.995900000000     0.218960000000     0.033614   
H193     H      0.712360000000     0.921950000000     0.184190000000     0.0342117  
H194     H      0.805180000000     0.916180000000     0.274430000000     0.041879   
H195     H      0.778140000000     0.019520000000     0.414400000000     0.0889191  
H196     H      0.769990000000     0.938090000000     0.390720000000     0.0985667  
H197     H      0.935060000000     0.184310000000     0.716300000000     0.0335395  
H198     H      0.011170000000     0.214130000000     0.632020000000     0.0378078  
H199     H      0.931890000000     0.279580000000     0.806080000000     0.0150748  
H200     H      0.005340000000     0.364120000000     0.775260000000     0.0475923  
H201     H      0.003920000000     0.131830000000     0.718140000000     0.0398394  
H202     H      0.077160000000     0.217690000000     0.688530000000     0.0343577  
H203     H      0.073890000000     0.310890000000     0.776390000000     0.040032   
H204     H      0.966590000000     0.279400000000     0.912170000000     0.0905602  
H205     H      0.049160000000     0.272070000000     0.891240000000     0.0979966  
H206     H      0.057470000000     0.800310000000     0.715450000000     0.0333166  
H207     H      0.984830000000     0.777200000000     0.626690000000     0.0373245  
H208     H      0.042570000000     0.703260000000     0.806940000000     0.0160031  
H209     H      0.959350000000     0.629250000000     0.770260000000     0.0483746  
H210     H      0.994540000000     0.859520000000     0.713750000000     0.0364744  
H211     H      0.914900000000     0.781810000000     0.678220000000     0.0342166  
H212     H      0.900280000000     0.692220000000     0.765620000000     0.0410388  
H213     H      0.998950000000     0.706440000000     0.909210000000     0.0900873  
H214     H      0.922190000000     0.731480000000     0.881860000000     0.0976211  
H215     H      0.941650000000     0.690080000000     0.221980000000     0.0334918  
H216     H      0.006470000000     0.711380000000     0.127680000000     0.035446   
H217     H      0.973620000000     0.785930000000     0.320140000000     0.0144284  
H218     H      0.048300000000     0.857750000000     0.268910000000     0.0518038  
H219     H      0.002310000000     0.629170000000     0.213840000000     0.0367972  
H220     H      0.080900000000     0.705410000000     0.172850000000     0.0319977  
H221     H      0.106770000000     0.795600000000     0.255560000000     0.0434738  
H222     H      0.035280000000     0.778770000000     0.411020000000     0.0933537  
H223     H      0.100730000000     0.741450000000     0.372030000000     0.0968408  
H224     H      0.914230000000     0.219430000000     0.303520000000     0.0347988  
H225     H      0.982330000000     0.127940000000     0.279300000000     0.0360799  
H226     H      0.925640000000     0.303310000000     0.207580000000     0.0170213  
H227     H      0.006250000000     0.269050000000     0.129000000000     0.0484113  
H228     H      0.978180000000     0.215500000000     0.361780000000     0.0361481  
H229     H      0.054710000000     0.175870000000     0.282760000000     0.0257363  
H230     H      0.068070000000     0.265600000000     0.189770000000     0.03234    
H231     H      0.965290000000     0.407740000000     0.209850000000     0.0976112  
H232     H      0.046620000000     0.382930000000     0.219250000000     0.0865358  
N1       N      0.498540000000     0.289630000000     0.201160000000    -0.202374   
N2       N      0.502550000000     0.196350000000     0.302140000000    -0.188787   
N3       N      0.539930000000     0.206150000000     0.126140000000    -0.199614   
N4       N      0.500510000000     0.795700000000     0.291020000000    -0.198834   
N5       N      0.511440000000     0.693840000000     0.199940000000    -0.185014   
N6       N      0.541200000000     0.871020000000     0.207320000000    -0.199324   
N7       N      0.501940000000     0.693240000000     0.797070000000    -0.195344   
N8       N      0.508390000000     0.786530000000     0.695750000000    -0.181955   
N9       N      0.545860000000     0.775790000000     0.871830000000    -0.199263   
N10      N      0.498430000000     0.188090000000     0.706410000000    -0.199519   
N11      N      0.500420000000     0.288020000000     0.800520000000    -0.185167   
N12      N      0.537700000000     0.112540000000     0.790150000000    -0.19931    
N13      N      0.789420000000     0.293050000000     0.477730000000    -0.196091   
N14      N      0.692800000000     0.193810000000     0.493730000000    -0.186932   
N15      N      0.700670000000     0.309610000000     0.400760000000    -0.210078   
N16      N      0.790640000000     0.694630000000     0.470450000000    -0.196407   
N17      N      0.696130000000     0.791370000000     0.492450000000    -0.184904   
N18      N      0.700750000000     0.614530000000     0.458340000000    -0.199965   
N19      N      0.196490000000     0.293810000000     0.505660000000    -0.201817   
N20      N      0.290400000000     0.193060000000     0.511870000000    -0.185102   
N21      N      0.280500000000     0.369020000000     0.545960000000    -0.199062   
N22      N      0.198600000000     0.692730000000     0.487910000000    -0.20087    
N23      N      0.291380000000     0.792730000000     0.479140000000    -0.183126   
N24      N      0.280450000000     0.617640000000     0.443170000000    -0.199218   
N25      N      0.807380000000     0.453850000000     0.282690000000    -0.199242   
N26      N      0.702420000000     0.472730000000     0.199000000000    -0.183266   
N27      N      0.741390000000     0.395310000000     0.362590000000    -0.257708   
N28      N      0.199770000000     0.505750000000     0.296870000000    -0.203317   
N29      N      0.301050000000     0.519720000000     0.204610000000    -0.187998   
N30      N      0.123940000000     0.549480000000     0.214670000000    -0.19906    
N31      N      0.190230000000     0.490760000000     0.705270000000    -0.19622    
N32      N      0.289640000000     0.473500000000     0.801210000000    -0.182379   
N33      N      0.108700000000     0.481230000000     0.793470000000    -0.199584   
N34      N      0.783870000000     0.502310000000     0.689760000000    -0.195632   
N35      N      0.694700000000     0.482530000000     0.793030000000    -0.182111   
N36      N      0.698480000000     0.467210000000     0.612670000000    -0.199332   
N37      N      0.704010000000     0.689090000000     0.998870000000    -0.197661   
N38      N      0.797100000000     0.788430000000     0.979060000000    -0.182228   
N39      N      0.793700000000     0.608890000000     0.990240000000    -0.200253   
N40      N      0.697390000000     0.288360000000     0.017470000000    -0.198748   
N41      N      0.791070000000     0.188730000000     0.030620000000    -0.183889   
N42      N      0.777950000000     0.364530000000     0.062160000000    -0.199464   
N43      N      0.198420000000     0.791520000000     0.015060000000    -0.197695   
N44      N      0.298200000000     0.697080000000     0.001160000000    -0.182291   
N45      N      0.117750000000     0.701940000000     0.005940000000    -0.200222   
N46      N      0.288710000000     0.295200000000     0.002130000000    -0.200506   
N47      N      0.194030000000     0.196660000000     0.980900000000    -0.186613   
N48      N      0.199140000000     0.375890000000     0.997980000000    -0.20044    
N49      N      0.698680000000     0.004430000000     0.697110000000    -0.200806   
N50      N      0.792480000000     0.011570000000     0.796770000000    -0.182962   
N51      N      0.778850000000     0.052290000000     0.622080000000    -0.198993   
N52      N      0.293140000000     0.974110000000     0.703560000000    -0.195652   
N53      N      0.198150000000     0.013960000000     0.793910000000    -0.184131   
N54      N      0.373920000000     0.970930000000     0.794050000000    -0.20064    
N55      N      0.289760000000     0.005490000000     0.297730000000    -0.198427   
N56      N      0.196210000000     0.008500000000     0.196760000000    -0.188733   
N57      N      0.205600000000     0.044780000000     0.373100000000    -0.199706   
N58      N      0.697630000000     0.996400000000     0.298390000000    -0.202806   
N59      N      0.792880000000     0.983100000000     0.198990000000    -0.18371    
N60      N      0.786920000000     0.984260000000     0.379290000000    -0.200655   
N61      N      0.995900000000     0.199980000000     0.797370000000    -0.196773   
N62      N      0.010940000000     0.294660000000     0.697960000000    -0.184154   
N63      N      0.003110000000     0.288790000000     0.878330000000    -0.198141   
N64      N      0.991040000000     0.791010000000     0.792830000000    -0.195296   
N65      N      0.971150000000     0.698050000000     0.692890000000    -0.1819     
N66      N      0.964220000000     0.705060000000     0.872400000000    -0.199713   
N67      N      0.015110000000     0.696320000000     0.292950000000    -0.198862   
N68      N      0.026990000000     0.789690000000     0.192980000000    -0.184196   
N69      N      0.063040000000     0.775060000000     0.368830000000    -0.199423   
N70      N      0.983810000000     0.293490000000     0.291900000000    -0.20052    
N71      N      0.998190000000     0.192240000000     0.199190000000    -0.188606   
N72      N      0.000230000000     0.372120000000     0.201830000000    -0.198515   
O1       O      0.993380000000     0.164450000000     0.090290000000    -0.63543    
O2       O      0.005150000000     0.818420000000     0.086210000000    -0.570475   
O3       O      0.902190000000     0.991910000000     0.170940000000    -0.613313   
O4       O      0.088080000000     0.993980000000     0.169350000000    -0.630675   
O5       O      0.169950000000     0.994920000000     0.087850000000    -0.629292   
O6       O      0.820320000000     0.988780000000     0.089760000000    -0.573443   
O7       O      0.012420000000     0.898480000000     0.168400000000    -0.607646   
O8       O      0.991460000000     0.083030000000     0.171550000000    -0.619715   
O9       O      0.060700000000     0.930630000000     0.058600000000    -1.46869    
O10      O      0.931270000000     0.054470000000     0.061410000000    -1.46865    
O11      O      0.923330000000     0.917280000000     0.061850000000    -1.05831    
O12      O      0.061140000000     0.058820000000     0.062200000000    -1.63922    
O13      O      0.997070000000     0.820950000000     0.901630000000    -0.577263   
O14      O      0.995770000000     0.168400000000     0.906360000000    -0.62596    
O15      O      0.822010000000     0.897690000000     0.989070000000    -0.567174   
O16      O      0.171770000000     0.901510000000     0.005410000000    -0.605947   
O17      O      0.168660000000     0.087240000000     0.989130000000    -0.622605   
O18      O      0.819410000000     0.082300000000     0.008590000000    -0.570175   
O19      O      0.901390000000     0.998560000000     0.822470000000    -0.567789   
O20      O      0.088740000000     0.003180000000     0.821020000000    -0.569491   
O21      O      0.820180000000     0.995140000000     0.904510000000    -0.569501   
O22      O      0.170250000000     0.004520000000     0.902650000000    -0.618819   
O23      O      0.905360000000     0.818420000000     0.989430000000    -0.57175    
O24      O      0.900110000000     0.164100000000     0.013750000000    -0.610391   
O25      O      0.085370000000     0.166770000000     0.990470000000    -0.626721   
O26      O      0.090230000000     0.821460000000     0.000900000000    -0.5819     
O27      O      0.992360000000     0.901310000000     0.820110000000    -0.557381   
O28      O      0.997880000000     0.089800000000     0.823190000000    -0.56278    
O29      O      0.058110000000     0.057980000000     0.933460000000    -1.46728    
O30      O      0.932580000000     0.930260000000     0.931510000000    -1.36081    
O31      O      0.920580000000     0.058700000000     0.924410000000    -1.06819    
O32      O      0.062830000000     0.921650000000     0.920820000000    -1.05688    
O33      O      0.989360000000     0.320450000000     0.402180000000    -0.622396   
O34      O      0.003320000000     0.667580000000     0.401310000000    -0.582672   
O35      O      0.911930000000     0.481350000000     0.313330000000    -0.630414   
O36      O      0.090750000000     0.497680000000     0.324010000000    -0.65508    
O37      O      0.170420000000     0.499060000000     0.406760000000    -0.622825   
O38      O      0.826960000000     0.484490000000     0.390770000000    -0.570972   
O39      O      0.007170000000     0.586850000000     0.320050000000    -0.611785   
O40      O      0.993410000000     0.401870000000     0.321880000000    -0.630519   
O41      O      0.060060000000     0.556840000000     0.432650000000    -1.47717    
O42      O      0.932950000000     0.430230000000     0.429030000000    -1.47833    
O43      O      0.922430000000     0.566810000000     0.424580000000    -1.07341    
O44      O      0.062190000000     0.427510000000     0.430690000000    -1.63489    
O45      O      0.985110000000     0.669800000000     0.584600000000    -0.573442   
O46      O      0.001680000000     0.320140000000     0.588210000000    -0.609741   
O47      O      0.819190000000     0.586140000000     0.483130000000    -0.57999    
O48      O      0.169000000000     0.584660000000     0.492390000000    -0.632974   
O49      O      0.166840000000     0.402350000000     0.503420000000    -0.647844   
O50      O      0.817520000000     0.401970000000     0.487060000000    -0.583641   
O51      O      0.894250000000     0.497140000000     0.665240000000    -0.56818    
O52      O      0.081210000000     0.494400000000     0.671820000000    -0.57155    
O53      O      0.816090000000     0.499590000000     0.580810000000    -0.571146   
O54      O      0.165530000000     0.487970000000     0.594130000000    -0.608107   
O55      O      0.899730000000     0.667560000000     0.485950000000    -0.560726   
O56      O      0.899040000000     0.320600000000     0.486780000000    -0.603949   
O57      O      0.086220000000     0.320740000000     0.500920000000    -0.62498    
O58      O      0.088410000000     0.666330000000     0.491990000000    -0.570948   
O59      O      0.981510000000     0.589140000000     0.666590000000    -0.563673   
O60      O      0.996150000000     0.402230000000     0.668640000000    -0.573318   
O61      O      0.055000000000     0.431060000000     0.560170000000    -1.46685    
O62      O      0.927690000000     0.557600000000     0.554560000000    -1.36573    
O63      O      0.917440000000     0.428760000000     0.565600000000    -1.0582     
O64      O      0.057080000000     0.568090000000     0.569650000000    -1.04736    
O65      O      0.666650000000     0.991240000000     0.406780000000    -0.650559   
O66      O      0.319220000000     0.998860000000     0.406650000000    -0.575706   
O67      O      0.499060000000     0.904220000000     0.321780000000    -0.620143   
O68      O      0.492030000000     0.087960000000     0.327670000000    -0.634337   
O69      O      0.489980000000     0.167710000000     0.410700000000    -0.629625   
O70      O      0.498260000000     0.821360000000     0.400930000000    -0.574336   
O71      O      0.399750000000     0.003930000000     0.324650000000    -0.614206   
O72      O      0.586570000000     0.993210000000     0.324740000000    -0.617268   
O73      O      0.428980000000     0.057470000000     0.436630000000    -1.45378    
O74      O      0.557280000000     0.930510000000     0.432500000000    -1.46656    
O75      O      0.419770000000     0.920860000000     0.431220000000    -1.06325    
O76      O      0.558410000000     0.059830000000     0.433900000000    -1.6576     
O77      O      0.319780000000     0.983600000000     0.593690000000    -0.559053   
O78      O      0.668470000000     0.000740000000     0.588630000000    -0.635633   
O79      O      0.400170000000     0.819290000000     0.491580000000    -0.568859   
O80      O      0.399170000000     0.165710000000     0.500430000000    -0.620771   
O81      O      0.584400000000     0.165600000000     0.506390000000    -0.629916   
O82      O      0.587130000000     0.819550000000     0.491000000000    -0.575576   
O83      O      0.498800000000     0.895240000000     0.670230000000    -0.569416   
O84      O      0.495890000000     0.080150000000     0.674850000000    -0.581647   
O85      O      0.494100000000     0.815520000000     0.587340000000    -0.562206   
O86      O      0.500100000000     0.163400000000     0.596140000000    -0.615713   
O87      O      0.318280000000     0.900130000000     0.495660000000    -0.568354   
O88      O      0.668790000000     0.900570000000     0.491170000000    -0.615104   
O89      O      0.666080000000     0.084910000000     0.497150000000    -0.63375    
O90      O      0.317750000000     0.084430000000     0.501640000000    -0.572293   
O91      O      0.402350000000     0.981770000000     0.673440000000    -0.576084   
O92      O      0.588730000000     0.995670000000     0.671190000000    -0.576188   
O93      O      0.557400000000     0.054680000000     0.563130000000    -1.47187    
O94      O      0.430390000000     0.926780000000     0.561120000000    -1.35803    
O95      O      0.560280000000     0.917610000000     0.569680000000    -1.06971    
O96      O      0.419830000000     0.055480000000     0.574800000000    -1.04712    
O97      O      0.320660000000     0.403810000000     0.002080000000    -0.633017   
O98      O      0.669400000000     0.396310000000     0.003960000000    -0.584097   
O99      O      0.490060000000     0.316730000000     0.908720000000    -0.623847   
O100     O      0.496590000000     0.318950000000     0.092260000000    -0.643633   
O101     O      0.499520000000     0.399220000000     0.174100000000    -0.630532   
O102     O      0.491680000000     0.396940000000     0.826270000000    -0.571587   
O103     O      0.587240000000     0.316370000000     0.010340000000    -0.600658   
O104     O      0.399520000000     0.320820000000     0.997910000000    -0.622203   
O105     O      0.559710000000     0.427070000000     0.062860000000    -1.47723    
O106     O      0.430300000000     0.428670000000     0.937790000000    -1.45968    
O107     O      0.567790000000     0.423890000000     0.925870000000    -1.05911    
O108     O      0.429840000000     0.427520000000     0.067790000000    -1.63505    
O109     O      0.672760000000     0.580530000000     0.996820000000    -0.579988   
O110     O      0.324500000000     0.588060000000     0.005460000000    -0.611529   
O111     O      0.586400000000     0.488410000000     0.823520000000    -0.568301   
O112     O      0.591810000000     0.476080000000     0.174380000000    -0.605571   
O113     O      0.408550000000     0.501470000000     0.176040000000    -0.640417   
O114     O      0.399610000000     0.484220000000     0.826760000000    -0.56723    
O115     O      0.500950000000     0.663980000000     0.906200000000    -0.57203    
O116     O      0.502050000000     0.664990000000     0.091780000000    -0.576492   
O117     O      0.497540000000     0.583570000000     0.824480000000    -0.562401   
O118     O      0.499170000000     0.585010000000     0.174440000000    -0.614619   
O119     O      0.669880000000     0.489130000000     0.903290000000    -0.566463   
O120     O      0.319730000000     0.483840000000     0.909970000000    -0.602716   
O121     O      0.326000000000     0.505600000000     0.095470000000    -0.623264   
O122     O      0.671380000000     0.484000000000     0.091230000000    -0.572122   
O123     O      0.593640000000     0.663190000000     0.995960000000    -0.566259   
O124     O      0.407510000000     0.667710000000     0.003610000000    -0.568957   
O125     O      0.435570000000     0.556090000000     0.064650000000    -1.46026    
O126     O      0.560440000000     0.552990000000     0.934490000000    -1.36356    
O127     O      0.430930000000     0.565450000000     0.926560000000    -1.05962    
O128     O      0.573160000000     0.563010000000     0.064550000000    -1.04974    


