data_structure

_audit_creation_method RASPA-1.0
_audit_creation_date 2023-5-19
_audit_author_name 'Poobodin Mano'

_cell_length_a    32.8815
_cell_length_b    32.8726
_cell_length_c    32.8881
_cell_angle_alpha 90
_cell_angle_beta  90
_cell_angle_gamma 90
_cell_volume      35548.8

_symmetry_cell_setting          triclinic
_symmetry_space_group_name_Hall 'P 1'
_symmetry_space_group_name_H-M  'P 1'
_symmetry_Int_Tables_number     1

_symmetry_equiv_pos_as_xyz 'x,y,z'

loop_
_atom_site_label
_atom_site_type_symbol
_atom_site_fract_x
_atom_site_fract_y
_atom_site_fract_z
_atom_site_charge
C1       C      0.993670000000     0.095010000000     0.096720000000     0.503334   
C2       C      0.004320000000     0.900040000000     0.095800000000     0.506454   
C3       C      0.900390000000     0.002800000000     0.097590000000     0.516621   
C4       C      0.094660000000     0.994570000000     0.096270000000     0.513997   
C5       C      0.994620000000     0.901880000000     0.899980000000     0.505027   
C6       C      0.002530000000     0.097580000000     0.902510000000     0.516654   
C7       C      0.900050000000     0.900430000000     0.996470000000     0.495465   
C8       C      0.095770000000     0.901310000000     0.002850000000     0.50938    
C9       C      0.094400000000     0.096150000000     0.996420000000     0.51308    
C10      C      0.899710000000     0.096050000000     0.004730000000     0.508054   
C11      C      0.899340000000     0.996850000000     0.901650000000     0.504699   
C12      C      0.095620000000     0.005370000000     0.901550000000     0.517306   
C13      C      0.994190000000     0.400080000000     0.401780000000     0.513983   
C14      C      0.003360000000     0.595440000000     0.400520000000     0.51602    
C15      C      0.900940000000     0.491870000000     0.399620000000     0.519247   
C16      C      0.095570000000     0.501100000000     0.401940000000     0.517291   
C17      C      0.994310000000     0.595640000000     0.596160000000     0.497591   
C18      C      0.003660000000     0.400020000000     0.596060000000     0.510141   
C19      C      0.899540000000     0.595190000000     0.499440000000     0.498182   
C20      C      0.095220000000     0.595810000000     0.493490000000     0.518721   
C21      C      0.094860000000     0.400820000000     0.501970000000     0.506651   
C22      C      0.900220000000     0.399820000000     0.493160000000     0.509618   
C23      C      0.899050000000     0.499970000000     0.595440000000     0.509075   
C24      C      0.095480000000     0.492580000000     0.596300000000     0.519822   
C25      C      0.594750000000     0.994270000000     0.401340000000     0.505308   
C26      C      0.400380000000     0.002260000000     0.400030000000     0.507566   
C27      C      0.503590000000     0.899930000000     0.401440000000     0.51122    
C28      C      0.493630000000     0.094140000000     0.399760000000     0.517619   
C29      C      0.399550000000     0.998130000000     0.595800000000     0.49726    
C30      C      0.595590000000     0.004270000000     0.595800000000     0.507769   
C31      C      0.400000000000     0.900580000000     0.500970000000     0.499354   
C32      C      0.400490000000     0.096820000000     0.491680000000     0.519079   
C33      C      0.595230000000     0.095280000000     0.500580000000     0.516368   
C34      C      0.595800000000     0.900940000000     0.493750000000     0.520016   
C35      C      0.494350000000     0.901680000000     0.597040000000     0.499252   
C36      C      0.503960000000     0.097940000000     0.594380000000     0.519324   
C37      C      0.401100000000     0.399510000000     0.000820000000     0.511625   
C38      C      0.397880000000     0.594250000000     0.994980000000     0.519487   
C39      C      0.398970000000     0.490830000000     0.095990000000     0.509737   
C40      C      0.399740000000     0.500900000000     0.901730000000     0.507764   
C41      C      0.593560000000     0.596930000000     0.002100000000     0.506347   
C42      C      0.595870000000     0.401140000000     0.992480000000     0.518538   
C43      C      0.499520000000     0.594190000000     0.097890000000     0.508374   
C44      C      0.490450000000     0.596970000000     0.902300000000     0.519749   
C45      C      0.502200000000     0.401830000000     0.900510000000     0.506844   
C46      C      0.492140000000     0.398850000000     0.095110000000     0.511439   
C47      C      0.594600000000     0.499380000000     0.096590000000     0.499839   
C48      C      0.594750000000     0.494900000000     0.900840000000     0.50963    
C49      C      0.488320000000     0.143210000000     0.298890000000    -0.175046   
C50      C      0.489940000000     0.379600000000     0.164930000000     0.0888289  
C51      C      0.488280000000     0.328820000000     0.113780000000     0.0893468  
C52      C      0.488900000000     0.349920000000     0.195240000000    -0.103359   
C53      C      0.465000000000     0.281500000000     0.252380000000    -0.037795   
C54      C      0.465670000000     0.251630000000     0.282620000000    -0.0296289  
C55      C      0.487940000000     0.276730000000     0.216590000000    -0.00728604 
C56      C      0.487220000000     0.298340000000     0.143360000000    -0.103813   
C57      C      0.489230000000     0.216300000000     0.277710000000    -0.0215335  
C58      C      0.491720000000     0.194430000000     0.350780000000    -0.123222   
C59      C      0.512170000000     0.211550000000     0.241950000000    -0.0294719  
C60      C      0.492790000000     0.163800000000     0.380170000000     0.0931135  
C61      C      0.489050000000     0.113060000000     0.328890000000     0.251634   
C62      C      0.511530000000     0.241410000000     0.211760000000    -0.0375726  
C63      C      0.487790000000     0.308700000000     0.184670000000     0.0555676  
C64      C      0.489740000000     0.184300000000     0.309580000000     0.0859669  
C65      C      0.505010000000     0.643550000000     0.198620000000    -0.173883   
C66      C      0.507040000000     0.880560000000     0.331690000000     0.0892771  
C67      C      0.506360000000     0.829840000000     0.382920000000     0.0877718  
C68      C      0.507870000000     0.850780000000     0.301440000000    -0.104149   
C69      C      0.530460000000     0.781560000000     0.244690000000    -0.037762   
C70      C      0.529440000000     0.751560000000     0.214590000000    -0.0297909  
C71      C      0.507090000000     0.777470000000     0.280270000000    -0.00738003 
C72      C      0.507240000000     0.799290000000     0.353430000000    -0.103505   
C73      C      0.505110000000     0.716750000000     0.219470000000    -0.0212315  
C74      C      0.502440000000     0.694620000000     0.146520000000    -0.121952   
C75      C      0.481740000000     0.712660000000     0.255010000000    -0.0293904  
C76      C      0.501010000000     0.663890000000     0.117260000000     0.0947913  
C77      C      0.503960000000     0.613290000000     0.168740000000     0.252386   
C78      C      0.482680000000     0.742680000000     0.285040000000    -0.0376176  
C79      C      0.507650000000     0.809550000000     0.312100000000     0.0552856  
C80      C      0.504210000000     0.684610000000     0.187760000000     0.0861679  
C81      C      0.486430000000     0.698060000000     0.853330000000    -0.173546   
C82      C      0.491730000000     0.831800000000     0.616400000000     0.0872387  
C83      C      0.491620000000     0.883000000000     0.667120000000     0.0864255  
C84      C      0.490140000000     0.801510000000     0.646120000000    -0.103014   
C85      C      0.464070000000     0.745290000000     0.714720000000    -0.0378722  
C86      C      0.463420000000     0.715170000000     0.744750000000    -0.0292623  
C87      C      0.488370000000     0.780200000000     0.719380000000    -0.00704976 
C88      C      0.490080000000     0.853450000000     0.697630000000    -0.102717   
C89      C      0.487040000000     0.719290000000     0.780150000000    -0.0212128  
C90      C      0.486620000000     0.646080000000     0.802110000000    -0.122588   
C91      C      0.511360000000     0.754180000000     0.784750000000    -0.029289   
C92      C      0.487440000000     0.616640000000     0.832730000000     0.098674   
C93      C      0.487490000000     0.668040000000     0.883480000000     0.254329   
C94      C      0.512000000000     0.784270000000     0.754760000000    -0.0379511  
C95      C      0.489410000000     0.812110000000     0.687330000000     0.0544977  
C96      C      0.486500000000     0.687380000000     0.812210000000     0.0868899  
C97      C      0.510890000000     0.198720000000     0.643650000000    -0.173023   
C98      C      0.504350000000     0.331990000000     0.880960000000     0.0854707  
C99      C      0.505570000000     0.383340000000     0.830410000000     0.0853392  
C100     C      0.505680000000     0.301770000000     0.851140000000    -0.104284   
C101     C      0.530610000000     0.244900000000     0.782830000000    -0.0377191  
C102     C      0.530880000000     0.214840000000     0.752730000000    -0.0300481  
C103     C      0.507620000000     0.280650000000     0.777760000000    -0.00758706 
C104     C      0.507000000000     0.353880000000     0.799820000000    -0.104009   
C105     C      0.508290000000     0.219890000000     0.716800000000    -0.0208498  
C106     C      0.506010000000     0.146810000000     0.694720000000    -0.12182    
C107     C      0.485370000000     0.255630000000     0.711700000000    -0.0296433  
C108     C      0.505070000000     0.117450000000     0.664050000000     0.0966684  
C109     C      0.510300000000     0.168710000000     0.613450000000     0.254311   
C110     C      0.485000000000     0.285610000000     0.741810000000    -0.0376063  
C111     C      0.506900000000     0.312480000000     0.809940000000     0.0540979  
C112     C      0.508500000000     0.188040000000     0.684700000000     0.086241   
C113     C      0.695750000000     0.145360000000     0.502120000000    -0.17449    
C114     C      0.830200000000     0.381180000000     0.490500000000     0.0887733  
C115     C      0.880860000000     0.329890000000     0.492230000000     0.0874106  
C116     C      0.799600000000     0.351750000000     0.490680000000    -0.102478   
C117     C      0.742530000000     0.281880000000     0.469760000000    -0.0378762  
C118     C      0.712250000000     0.252070000000     0.471690000000    -0.029173   
C119     C      0.777600000000     0.278810000000     0.494020000000    -0.00695727 
C120     C      0.850990000000     0.299690000000     0.492600000000    -0.104116   
C121     C      0.716350000000     0.218590000000     0.497980000000    -0.0212967  
C122     C      0.643350000000     0.196000000000     0.497880000000    -0.122649   
C123     C      0.751300000000     0.215760000000     0.522460000000    -0.0290802  
C124     C      0.614200000000     0.165110000000     0.498750000000     0.0926316  
C125     C      0.666000000000     0.114970000000     0.503250000000     0.251001   
C126     C      0.781580000000     0.245470000000     0.520450000000    -0.0377607  
C127     C      0.809780000000     0.310450000000     0.492160000000     0.0551744  
C128     C      0.684710000000     0.186320000000     0.499390000000     0.0856486  
C129     C      0.695920000000     0.850310000000     0.488480000000    -0.174264   
C130     C      0.829450000000     0.613810000000     0.500110000000     0.0857582  
C131     C      0.880110000000     0.665080000000     0.498070000000     0.0855115  
C132     C      0.798850000000     0.643230000000     0.499150000000    -0.103226   
C133     C      0.742150000000     0.713390000000     0.520100000000    -0.0380824  
C134     C      0.712110000000     0.743420000000     0.518570000000    -0.029154   
C135     C      0.776940000000     0.716200000000     0.495420000000    -0.00698878 
C136     C      0.850270000000     0.695270000000     0.496870000000    -0.102749   
C137     C      0.716120000000     0.776890000000     0.492240000000    -0.0213921  
C138     C      0.643330000000     0.799960000000     0.493770000000    -0.1225     
C139     C      0.750750000000     0.779450000000     0.467290000000    -0.028964   
C140     C      0.614380000000     0.831020000000     0.493910000000     0.0970771  
C141     C      0.666330000000     0.880900000000     0.488380000000     0.254015   
C142     C      0.780840000000     0.749500000000     0.468910000000    -0.0380118  
C143     C      0.809070000000     0.684520000000     0.497250000000     0.0543537  
C144     C      0.684700000000     0.809400000000     0.491370000000     0.0867149  
C145     C      0.350080000000     0.197120000000     0.486980000000    -0.173197   
C146     C      0.113760000000     0.330780000000     0.503070000000     0.0869887  
C147     C      0.164820000000     0.381620000000     0.500670000000     0.0846533  
C148     C      0.143270000000     0.300270000000     0.501850000000    -0.102424   
C149     C      0.213750000000     0.243430000000     0.521370000000    -0.0377886  
C150     C      0.243700000000     0.213330000000     0.519030000000    -0.0286364  
C151     C      0.216240000000     0.278520000000     0.497070000000    -0.00636065 
C152     C      0.195100000000     0.351850000000     0.499230000000    -0.102475   
C153     C      0.276780000000     0.217570000000     0.492250000000    -0.0208878  
C154     C      0.299660000000     0.144650000000     0.492690000000    -0.121655   
C155     C      0.279050000000     0.252550000000     0.467720000000    -0.0285891  
C156     C      0.330620000000     0.115580000000     0.492230000000     0.0971061  
C157     C      0.380560000000     0.167410000000     0.486290000000     0.254374   
C158     C      0.249180000000     0.282690000000     0.470160000000    -0.0378868  
C159     C      0.184500000000     0.310600000000     0.499560000000     0.0542412  
C160     C      0.309180000000     0.186030000000     0.490480000000     0.0866946  
C161     C      0.145450000000     0.696210000000     0.490060000000    -0.173171   
C162     C      0.381390000000     0.830490000000     0.501880000000     0.0873932  
C163     C      0.330100000000     0.881130000000     0.500120000000     0.0866868  
C164     C      0.352010000000     0.799860000000     0.500860000000    -0.103223   
C165     C      0.282310000000     0.742510000000     0.520990000000    -0.0375373  
C166     C      0.252470000000     0.712280000000     0.519080000000    -0.0291139  
C167     C      0.279110000000     0.777780000000     0.497020000000    -0.00709043 
C168     C      0.299930000000     0.851230000000     0.498960000000    -0.102953   
C169     C      0.218780000000     0.716620000000     0.493110000000    -0.0207834  
C170     C      0.196040000000     0.643670000000     0.493020000000    -0.121932   
C171     C      0.215800000000     0.751750000000     0.468890000000    -0.0291497  
C172     C      0.165090000000     0.614590000000     0.492850000000     0.097786   
C173     C      0.114980000000     0.666520000000     0.489670000000     0.254189   
C174     C      0.245580000000     0.781980000000     0.470850000000    -0.0376492  
C175     C      0.310720000000     0.810010000000     0.499100000000     0.0547983  
C176     C      0.186410000000     0.685070000000     0.491920000000     0.0869248  
C177     C      0.850510000000     0.487430000000     0.299360000000    -0.174382   
C178     C      0.613460000000     0.499230000000     0.166620000000     0.0861619  
C179     C      0.664550000000     0.498870000000     0.115760000000     0.0878188  
C180     C      0.643020000000     0.498140000000     0.197080000000    -0.102786   
C181     C      0.713190000000     0.518870000000     0.253890000000    -0.0381371  
C182     C      0.743330000000     0.517060000000     0.283790000000    -0.0289347  
C183     C      0.716120000000     0.494890000000     0.218630000000    -0.00650664 
C184     C      0.694860000000     0.497560000000     0.145460000000    -0.10151    
C185     C      0.777050000000     0.491130000000     0.279180000000    -0.0214459  
C186     C      0.800070000000     0.491440000000     0.351960000000    -0.122315   
C187     C      0.779760000000     0.466910000000     0.244040000000    -0.0286703  
C188     C      0.831080000000     0.491370000000     0.380940000000     0.0967884  
C189     C      0.881060000000     0.487100000000     0.329000000000     0.2537     
C190     C      0.749690000000     0.468830000000     0.214090000000    -0.0380309  
C191     C      0.684280000000     0.496990000000     0.186680000000     0.054651   
C192     C      0.809570000000     0.489850000000     0.310580000000     0.0865661  
C193     C      0.196040000000     0.502000000000     0.351700000000    -0.174387   
C194     C      0.328990000000     0.487850000000     0.114890000000     0.0887874  
C195     C      0.379860000000     0.490130000000     0.165910000000     0.0887854  
C196     C      0.298510000000     0.488360000000     0.144470000000    -0.103698   
C197     C      0.241660000000     0.468660000000     0.214940000000    -0.0380084  
C198     C      0.211700000000     0.470940000000     0.245020000000    -0.0291207  
C199     C      0.276950000000     0.492650000000     0.217570000000    -0.00680964 
C200     C      0.350160000000     0.490770000000     0.196240000000    -0.10233    
C201     C      0.216320000000     0.497330000000     0.278370000000    -0.0214059  
C202     C      0.143470000000     0.498320000000     0.301200000000    -0.122702   
C203     C      0.251500000000     0.521520000000     0.280800000000    -0.0288869  
C204     C      0.114420000000     0.499560000000     0.332130000000     0.0947778  
C205     C      0.166350000000     0.503440000000     0.382160000000     0.251223   
C206     C      0.281460000000     0.519180000000     0.250790000000    -0.0379851  
C207     C      0.308910000000     0.490330000000     0.185710000000     0.0551927  
C208     C      0.184860000000     0.499280000000     0.310780000000     0.0858785  
C209     C      0.195600000000     0.487830000000     0.647020000000    -0.173907   
C210     C      0.329620000000     0.501570000000     0.883160000000     0.0868821  
C211     C      0.380210000000     0.500160000000     0.831850000000     0.0857907  
C212     C      0.298970000000     0.500480000000     0.853790000000    -0.102506   
C213     C      0.241760000000     0.520630000000     0.783740000000    -0.0379843  
C214     C      0.211620000000     0.518600000000     0.753820000000    -0.0289975  
C215     C      0.276910000000     0.496460000000     0.780880000000    -0.00699083 
C216     C      0.350310000000     0.498830000000     0.801700000000    -0.103761   
C217     C      0.215870000000     0.492240000000     0.720390000000    -0.0212005  
C218     C      0.142980000000     0.493090000000     0.697310000000    -0.121771   
C219     C      0.250870000000     0.467760000000     0.717810000000    -0.029229   
C220     C      0.114010000000     0.492890000000     0.666250000000     0.0967593  
C221     C      0.166000000000     0.487380000000     0.616450000000     0.254277   
C222     C      0.281050000000     0.469920000000     0.747640000000    -0.0382994  
C223     C      0.309110000000     0.498750000000     0.812500000000     0.0541647  
C224     C      0.184390000000     0.490900000000     0.687910000000     0.0864406  
C225     C      0.798420000000     0.501270000000     0.645390000000    -0.173295   
C226     C      0.614030000000     0.493040000000     0.830950000000     0.0889021  
C227     C      0.664810000000     0.493940000000     0.882100000000     0.0858475  
C228     C      0.643800000000     0.493350000000     0.800670000000    -0.104287   
C229     C      0.752520000000     0.472020000000     0.783080000000    -0.0380371  
C230     C      0.782570000000     0.473450000000     0.753040000000    -0.029404   
C231     C      0.717050000000     0.495620000000     0.779480000000    -0.00737924 
C232     C      0.695340000000     0.494070000000     0.852590000000    -0.103903   
C233     C      0.777890000000     0.498600000000     0.718760000000    -0.0212392  
C234     C      0.850840000000     0.498960000000     0.696100000000    -0.121908   
C235     C      0.742510000000     0.522420000000     0.715370000000    -0.0292379  
C236     C      0.879990000000     0.499500000000     0.665230000000     0.0958389  
C237     C      0.828180000000     0.502090000000     0.614990000000     0.252317   
C238     C      0.712440000000     0.520880000000     0.745320000000    -0.0379422  
C239     C      0.685020000000     0.494140000000     0.811300000000     0.0550018  
C240     C      0.809470000000     0.499650000000     0.686400000000     0.0859583  
C241     C      0.643580000000     0.697570000000     0.004270000000    -0.171372   
C242     C      0.881070000000     0.830370000000     0.995230000000     0.0859452  
C243     C      0.830090000000     0.881320000000     0.996650000000     0.0850098  
C244     C      0.851430000000     0.799930000000     0.995730000000    -0.104696   
C245     C      0.781260000000     0.743350000000     0.974320000000    -0.0320215  
C246     C      0.751020000000     0.713470000000     0.975610000000    -0.0408549  
C247     C      0.778190000000     0.778460000000     0.998530000000    -0.0176552  
C248     C      0.799710000000     0.851660000000     0.997290000000    -0.105224   
C249     C      0.717040000000     0.717980000000     0.001200000000    -0.0106139  
C250     C      0.694230000000     0.645110000000     0.001030000000    -0.119337   
C251     C      0.714140000000     0.753000000000     0.025590000000    -0.0355169  
C252     C      0.663330000000     0.616000000000     0.001480000000     0.0958236  
C253     C      0.613130000000     0.667810000000     0.004940000000     0.250901   
C254     C      0.744330000000     0.782890000000     0.024230000000    -0.0267448  
C255     C      0.810170000000     0.810380000000     0.997050000000     0.056687   
C256     C      0.684580000000     0.686480000000     0.002210000000     0.0830023  
C257     C      0.696520000000     0.351400000000     0.990950000000    -0.175958   
C258     C      0.829680000000     0.114830000000     0.005410000000     0.0886903  
C259     C      0.880510000000     0.165960000000     0.006070000000     0.0884202  
C260     C      0.799200000000     0.144380000000     0.004290000000    -0.0999639  
C261     C      0.741670000000     0.214350000000     0.023450000000    -0.044031   
C262     C      0.711670000000     0.244330000000     0.020620000000    -0.0174379  
C263     C      0.777680000000     0.217470000000     0.000640000000     0.00391827 
C264     C      0.850810000000     0.196270000000     0.004830000000    -0.101467   
C265     C      0.716980000000     0.278060000000     0.994860000000    -0.0320514  
C266     C      0.644120000000     0.300570000000     0.992210000000    -0.125608   
C267     C      0.752900000000     0.281020000000     0.971880000000    -0.0227437  
C268     C      0.614970000000     0.331390000000     0.991300000000     0.0986186  
C269     C      0.666720000000     0.381770000000     0.989810000000     0.253055   
C270     C      0.782920000000     0.251100000000     0.974770000000    -0.0492854  
C271     C      0.809600000000     0.185660000000     0.003510000000     0.0525842  
C272     C      0.685470000000     0.310370000000     0.992510000000     0.0895707  
C273     C      0.297430000000     0.644520000000     0.993370000000    -0.176371   
C274     C      0.165740000000     0.882340000000     0.005300000000     0.0902396  
C275     C      0.114800000000     0.831360000000     0.003100000000     0.0885789  
C276     C      0.196160000000     0.852700000000     0.004880000000    -0.10093    
C277     C      0.252350000000     0.784620000000     0.977440000000    -0.0488671  
C278     C      0.281940000000     0.754180000000     0.975380000000    -0.0226771  
C279     C      0.217560000000     0.779480000000     0.001760000000     0.00378339 
C280     C      0.144430000000     0.800980000000     0.002700000000    -0.101156   
C281     C      0.277390000000     0.717920000000     0.997590000000    -0.0315539  
C282     C      0.350080000000     0.695030000000     0.995880000000    -0.122506   
C283     C      0.242710000000     0.712910000000     0.022080000000    -0.017513   
C284     C      0.379060000000     0.664050000000     0.995120000000     0.0989813  
C285     C      0.327050000000     0.613950000000     0.992840000000     0.255051   
C286     C      0.213140000000     0.743330000000     0.024140000000    -0.0439192  
C287     C      0.185690000000     0.811450000000     0.003290000000     0.0530305  
C288     C      0.308710000000     0.685450000000     0.995410000000     0.0899764  
C289     C      0.145270000000     0.196390000000     0.995100000000    -0.17486    
C290     C      0.382650000000     0.329280000000     0.001290000000     0.0881623  
C291     C      0.331290000000     0.379870000000     0.001190000000     0.088014   
C292     C      0.353220000000     0.298620000000     0.000800000000    -0.107425   
C293     C      0.283620000000     0.241310000000     0.022500000000    -0.0294542  
C294     C      0.253350000000     0.211440000000     0.021480000000    -0.0253441  
C295     C      0.280080000000     0.276680000000     0.998730000000    -0.0213101  
C296     C      0.301120000000     0.349990000000     0.000570000000    -0.10706    
C297     C      0.218880000000     0.216230000000     0.996610000000    -0.0261911  
C298     C      0.195520000000     0.143480000000     0.996750000000    -0.124071   
C299     C      0.215590000000     0.251430000000     0.972540000000    -0.0304717  
C300     C      0.164360000000     0.114630000000     0.996540000000     0.0926991  
C301     C      0.114560000000     0.166900000000     0.994640000000     0.251715   
C302     C      0.245790000000     0.281290000000     0.973620000000    -0.0348078  
C303     C      0.311880000000     0.308790000000     0.000140000000     0.0640443  
C304     C      0.186200000000     0.184950000000     0.996130000000     0.0861667  
C305     C      0.798930000000     0.995470000000     0.851300000000    -0.176958   
C306     C      0.665610000000     0.006660000000     0.614620000000     0.0882176  
C307     C      0.614790000000     0.005500000000     0.665720000000     0.0872691  
C308     C      0.696120000000     0.006450000000     0.644160000000    -0.101048   
C309     C      0.753050000000     0.027360000000     0.714250000000    -0.044827   
C310     C      0.783090000000     0.025490000000     0.744280000000    -0.0167493  
C311     C      0.717800000000     0.003350000000     0.717250000000     0.00440341 
C312     C      0.644540000000     0.005100000000     0.696020000000    -0.100879   
C313     C      0.778610000000     0.999480000000     0.777950000000    -0.0341349  
C314     C      0.851510000000     0.999260000000     0.800840000000    -0.133131   
C315     C      0.743470000000     0.975250000000     0.780720000000    -0.0220351  
C316     C      0.880550000000     0.998360000000     0.831800000000     0.0971089  
C317     C      0.828590000000     0.994320000000     0.881790000000     0.252327   
C318     C      0.713420000000     0.977200000000     0.750780000000    -0.0502771  
C319     C      0.685780000000     0.005230000000     0.685430000000     0.0520803  
C320     C      0.810110000000     0.998020000000     0.810380000000     0.0918183  
C321     C      0.195710000000     0.011060000000     0.850850000000    -0.172472   
C322     C      0.329430000000     0.997640000000     0.614430000000     0.0890269  
C323     C      0.380070000000     0.000130000000     0.665660000000     0.0948706  
C324     C      0.298810000000     0.998930000000     0.643830000000    -0.111616   
C325     C      0.241860000000     0.978840000000     0.714020000000    -0.0418163  
C326     C      0.211790000000     0.980630000000     0.744030000000    -0.0359048  
C327     C      0.276810000000     0.003330000000     0.716760000000    -0.00318901 
C328     C      0.350190000000     0.001620000000     0.695820000000    -0.106097   
C329     C      0.215920000000     0.007030000000     0.777430000000    -0.0137493  
C330     C      0.143090000000     0.005790000000     0.800560000000    -0.118932   
C331     C      0.250720000000     0.031790000000     0.779920000000    -0.0304793  
C332     C      0.114150000000     0.005670000000     0.831620000000     0.0976017  
C333     C      0.166110000000     0.011160000000     0.881450000000     0.254181   
C334     C      0.280820000000     0.029910000000     0.749990000000    -0.0369865  
C335     C      0.308990000000     0.001190000000     0.685090000000     0.0630419  
C336     C      0.184480000000     0.008120000000     0.809960000000     0.0851451  
C337     C      0.145260000000     0.992650000000     0.196510000000    -0.175937   
C338     C      0.381750000000     0.003530000000     0.329960000000     0.0874359  
C339     C      0.330500000000     0.003110000000     0.380640000000     0.0872835  
C340     C      0.352300000000     0.003010000000     0.299380000000    -0.102228   
C341     C      0.282460000000     0.023860000000     0.242160000000    -0.044233   
C342     C      0.252460000000     0.021980000000     0.212090000000    -0.0172192  
C343     C      0.279280000000     0.000050000000     0.277530000000     0.00404786 
C344     C      0.300280000000     0.002410000000     0.350820000000    -0.101106   
C345     C      0.218660000000     0.996160000000     0.216670000000    -0.0321119  
C346     C      0.195640000000     0.995950000000     0.143820000000    -0.124589   
C347     C      0.215750000000     0.972070000000     0.251890000000    -0.0224835  
C348     C      0.164590000000     0.995310000000     0.114860000000     0.0948148  
C349     C      0.114690000000     0.991750000000     0.166940000000     0.25133    
C350     C      0.245660000000     0.974050000000     0.281980000000    -0.049664   
C351     C      0.311010000000     0.002060000000     0.309620000000     0.0524062  
C352     C      0.186180000000     0.994840000000     0.185240000000     0.0887084  
C353     C      0.850030000000     0.006690000000     0.197880000000    -0.172053   
C354     C      0.613630000000     0.992610000000     0.331350000000     0.0864547  
C355     C      0.664700000000     0.995330000000     0.382150000000     0.0844231  
C356     C      0.643150000000     0.993530000000     0.300850000000    -0.104782   
C357     C      0.713520000000     0.973510000000     0.244150000000    -0.0316158  
C358     C      0.743490000000     0.975550000000     0.214080000000    -0.0409172  
C359     C      0.716130000000     0.997980000000     0.279110000000    -0.0177003  
C360     C      0.694980000000     0.996440000000     0.352400000000    -0.104845   
C361     C      0.776710000000     0.002160000000     0.218240000000    -0.0101747  
C362     C      0.799570000000     0.001720000000     0.145390000000    -0.119318   
C363     C      0.779110000000     0.026850000000     0.253080000000    -0.0352376  
C364     C      0.830530000000     0.002180000000     0.116340000000     0.096642   
C365     C      0.880510000000     0.007350000000     0.168200000000     0.253768   
C366     C      0.749210000000     0.024740000000     0.283180000000    -0.026182   
C367     C      0.684380000000     0.995800000000     0.311170000000     0.0567751  
C368     C      0.809120000000     0.003660000000     0.186750000000     0.0837975  
C369     C      0.004680000000     0.197900000000     0.852030000000    -0.175708   
C370     C      0.009770000000     0.330250000000     0.614840000000     0.0896236  
C371     C      0.005720000000     0.380910000000     0.665970000000     0.0881047  
C372     C      0.011690000000     0.299800000000     0.644350000000    -0.102496   
C373     C      0.988920000000     0.241690000000     0.712140000000    -0.0438591  
C374     C      0.988710000000     0.211870000000     0.742400000000    -0.0354993  
C375     C      0.010960000000     0.277950000000     0.717460000000    -0.00100043 
C376     C      0.007530000000     0.351210000000     0.696260000000    -0.102241   
C377     C      0.010470000000     0.217670000000     0.778710000000    -0.0155813  
C378     C      0.011530000000     0.145100000000     0.802060000000    -0.121487   
C379     C      0.032780000000     0.253760000000     0.783930000000    -0.0299256  
C380     C      0.009330000000     0.116210000000     0.833030000000     0.0973677  
C381     C      0.002110000000     0.168330000000     0.882540000000     0.257883   
C382     C      0.033070000000     0.283550000000     0.753630000000    -0.0386293  
C383     C      0.010290000000     0.310050000000     0.685650000000     0.0541614  
C384     C      0.009180000000     0.186490000000     0.811350000000     0.086208   
C385     C      0.990040000000     0.851930000000     0.799400000000    -0.174162   
C386     C      0.992920000000     0.614610000000     0.666150000000     0.0870298  
C387     C      0.991950000000     0.665640000000     0.615250000000     0.087291   
C388     C      0.992140000000     0.644200000000     0.696600000000    -0.103929   
C389     C      0.015530000000     0.713620000000     0.752990000000    -0.0318334  
C390     C      0.015470000000     0.743790000000     0.782930000000    -0.0229988  
C391     C      0.990860000000     0.717380000000     0.718270000000    -0.0126739  
C392     C      0.991040000000     0.696010000000     0.644960000000    -0.101979   
C393     C      0.990710000000     0.778430000000     0.778910000000    -0.0273932  
C394     C      0.992910000000     0.801190000000     0.851780000000    -0.123217   
C395     C      0.965850000000     0.782050000000     0.744290000000    -0.0283228  
C396     C      0.993770000000     0.832080000000     0.880890000000     0.0953578  
C397     C      0.990670000000     0.882380000000     0.829170000000     0.251482   
C398     C      0.965970000000     0.751920000000     0.714310000000    -0.0373228  
C399     C      0.991270000000     0.685490000000     0.686220000000     0.0556403  
C400     C      0.991170000000     0.810880000000     0.810440000000     0.0868636  
C401     C      0.005080000000     0.695570000000     0.349550000000    -0.174849   
C402     C      0.010000000000     0.829960000000     0.113640000000     0.0880623  
C403     C      0.007440000000     0.879990000000     0.165440000000     0.0880761  
C404     C      0.012230000000     0.799100000000     0.142730000000    -0.101352   
C405     C      0.990930000000     0.739780000000     0.209930000000    -0.0434837  
C406     C      0.990860000000     0.709650000000     0.239910000000    -0.0354247  
C407     C      0.012640000000     0.776220000000     0.215640000000    -0.00065732 
C408     C      0.009470000000     0.849870000000     0.195340000000    -0.101556   
C409     C      0.012330000000     0.715320000000     0.276410000000    -0.0151667  
C410     C      0.013800000000     0.642710000000     0.299960000000    -0.121104   
C411     C      0.034410000000     0.751500000000     0.281990000000    -0.0299095  
C412     C      0.011380000000     0.613870000000     0.331040000000     0.0989619  
C413     C      0.002180000000     0.666080000000     0.380110000000     0.256544   
C414     C      0.034650000000     0.781550000000     0.251930000000    -0.0382296  
C415     C      0.011680000000     0.808780000000     0.184200000000     0.0538494  
C416     C      0.010710000000     0.684110000000     0.309040000000     0.0861272  
C417     C      0.989460000000     0.299500000000     0.351830000000    -0.175656   
C418     C      0.991670000000     0.165010000000     0.115550000000     0.0868946  
C419     C      0.991910000000     0.114250000000     0.166720000000     0.0842005  
C420     C      0.990880000000     0.195570000000     0.145000000000    -0.103443   
C421     C      0.014560000000     0.252500000000     0.213790000000    -0.032      
C422     C      0.014420000000     0.282730000000     0.243690000000    -0.022729   
C423     C      0.990190000000     0.217600000000     0.217980000000    -0.0124185  
C424     C      0.990940000000     0.144090000000     0.196980000000    -0.102953   
C425     C      0.989850000000     0.278810000000     0.278460000000    -0.0275976  
C426     C      0.992250000000     0.351860000000     0.301080000000    -0.124309   
C427     C      0.965240000000     0.244020000000     0.282460000000    -0.0281517  
C428     C      0.993280000000     0.381020000000     0.331960000000     0.0921885  
C429     C      0.990200000000     0.329270000000     0.382240000000     0.251008   
C430     C      0.965470000000     0.213750000000     0.252620000000    -0.0372984  
C431     C      0.990600000000     0.185350000000     0.186300000000     0.0551888  
C432     C      0.990430000000     0.310490000000     0.310800000000     0.0866838  
Eu1      Eu     0.997010000000     0.997220000000     0.070940000000     3.44966    
Eu2      Eu     0.997770000000     0.925970000000     0.998240000000     2.99862    
Eu3      Eu     0.996670000000     0.070410000000     0.999010000000     3.46257    
Eu4      Eu     0.924990000000     0.998240000000     0.999330000000     3.01214    
Eu5      Eu     0.069540000000     0.998180000000     0.998320000000     3.47154    
Eu6      Eu     0.997450000000     0.999280000000     0.926430000000     3.01163    
Eu7      Eu     0.997520000000     0.498280000000     0.426420000000     3.46508    
Eu8      Eu     0.997390000000     0.570290000000     0.498360000000     3.01977    
Eu9      Eu     0.997150000000     0.425900000000     0.499310000000     3.472      
Eu10     Eu     0.925170000000     0.497620000000     0.497910000000     3.07683    
Eu11     Eu     0.069570000000     0.498650000000     0.499480000000     3.54086    
Eu12     Eu     0.997290000000     0.497890000000     0.571150000000     3.02416    
Eu13     Eu     0.497070000000     0.996860000000     0.426460000000     3.47915    
Eu14     Eu     0.425080000000     0.998540000000     0.498140000000     3.00703    
Eu15     Eu     0.569510000000     0.997700000000     0.499050000000     3.48234    
Eu16     Eu     0.497650000000     0.925820000000     0.499130000000     3.06907    
Eu17     Eu     0.497220000000     0.070420000000     0.497980000000     3.54124    
Eu18     Eu     0.497540000000     0.999370000000     0.570960000000     3.01565    
Eu19     Eu     0.425140000000     0.497620000000     0.999320000000     3.46341    
Eu20     Eu     0.496150000000     0.570310000000     0.999740000000     3.02609    
Eu21     Eu     0.498530000000     0.425840000000     0.998470000000     3.46343    
Eu22     Eu     0.496940000000     0.496900000000     0.071220000000     3.08366    
Eu23     Eu     0.497690000000     0.499420000000     0.926650000000     3.50805    
Eu24     Eu     0.569570000000     0.498680000000     0.998740000000     3.04009    
H1       H      0.960160000000     0.959900000000     0.066030000000    -0.174341   
H2       H      0.056320000000     0.057180000000     0.058440000000     0.415726   
H3       H      0.959590000000     0.065910000000     0.961940000000    -0.177797   
H4       H      0.064780000000     0.961570000000     0.960880000000    -0.182342   
H5       H      0.960360000000     0.535260000000     0.430880000000    -0.174839   
H6       H      0.056900000000     0.438820000000     0.439890000000     0.416418   
H7       H      0.959900000000     0.430520000000     0.536280000000    -0.173561   
H8       H      0.064540000000     0.535740000000     0.536500000000    -0.186203   
H9       H      0.460010000000     0.959800000000     0.431510000000    -0.175731   
H10      H      0.556620000000     0.056670000000     0.438650000000     0.417802   
H11      H      0.564720000000     0.961030000000     0.536510000000    -0.177019   
H12      H      0.460150000000     0.066230000000     0.535140000000    -0.185339   
H13      H      0.429450000000     0.534210000000     0.036760000000    -0.175802   
H14      H      0.438940000000     0.438860000000     0.939000000000     0.409988   
H15      H      0.535490000000     0.430510000000     0.035680000000    -0.16918    
H16      H      0.534270000000     0.536890000000     0.931990000000    -0.181928   
H17      H      0.487880000000     0.319320000000     0.082230000000     0.020207   
H18      H      0.494870000000     0.173490000000     0.411600000000     0.0181292  
H19      H      0.530130000000     0.237120000000     0.184910000000     0.0379017  
H20      H      0.447220000000     0.255920000000     0.309560000000     0.0348642  
H21      H      0.493220000000     0.225920000000     0.360390000000     0.0585491  
H22      H      0.446070000000     0.308100000000     0.256800000000     0.0377777  
H23      H      0.485970000000     0.134230000000     0.267270000000     0.0814703  
H24      H      0.485720000000     0.266840000000     0.133820000000     0.0541013  
H25      H      0.489840000000     0.359320000000     0.226790000000     0.0546206  
H26      H      0.531140000000     0.184980000000     0.237540000000     0.0368762  
H27      H      0.491140000000     0.411070000000     0.174720000000     0.0219029  
H28      H      0.457440000000     0.066970000000     0.315140000000     0.151877   
H29      H      0.505910000000     0.820380000000     0.414490000000     0.0196453  
H30      H      0.499240000000     0.673500000000     0.085790000000     0.0199402  
H31      H      0.463720000000     0.738910000000     0.311700000000     0.0377216  
H32      H      0.548200000000     0.755300000000     0.187780000000     0.0345935  
H33      H      0.501440000000     0.726090000000     0.136810000000     0.0590889  
H34      H      0.550010000000     0.807710000000     0.240310000000     0.037157   
H35      H      0.507120000000     0.634680000000     0.230290000000     0.0812378  
H36      H      0.507770000000     0.767790000000     0.363080000000     0.0537656  
H37      H      0.507760000000     0.860130000000     0.269870000000     0.0540127  
H38      H      0.462200000000     0.686500000000     0.259380000000     0.0371394  
H39      H      0.506830000000     0.912030000000     0.321850000000     0.0208176  
H40      H      0.534850000000     0.566720000000     0.182700000000     0.14957    
H41      H      0.492020000000     0.914570000000     0.676630000000     0.0188362  
H42      H      0.487870000000     0.585140000000     0.823020000000     0.0172924  
H43      H      0.531590000000     0.810410000000     0.758990000000     0.0372037  
H44      H      0.443950000000     0.688940000000     0.740510000000     0.0356286  
H45      H      0.486950000000     0.636390000000     0.770630000000     0.0582905  
H46      H      0.445080000000     0.741470000000     0.688080000000     0.0376057  
H47      H      0.485460000000     0.729750000000     0.862360000000     0.0822324  
H48      H      0.489020000000     0.863060000000     0.729120000000     0.0531217  
H49      H      0.490170000000     0.769920000000     0.636760000000     0.0534408  
H50      H      0.530470000000     0.757980000000     0.811300000000     0.035495   
H51      H      0.492440000000     0.821970000000     0.584940000000     0.0199403  
H52      H      0.516340000000     0.684700000000     0.930470000000     0.159367   
H53      H      0.505740000000     0.414940000000     0.821010000000     0.0180609  
H54      H      0.502500000000     0.086020000000     0.673680000000     0.0180349  
H55      H      0.466390000000     0.312390000000     0.737190000000     0.0368573  
H56      H      0.549270000000     0.187910000000     0.757350000000     0.0350367  
H57      H      0.503860000000     0.137190000000     0.726150000000     0.0583588  
H58      H      0.548860000000     0.240340000000     0.809850000000     0.0373075  
H59      H      0.513760000000     0.230340000000     0.634760000000     0.0825772  
H60      H      0.508560000000     0.363620000000     0.768400000000     0.0533467  
H61      H      0.505020000000     0.270170000000     0.860420000000     0.0526936  
H62      H      0.467130000000     0.260160000000     0.684650000000     0.038001   
H63      H      0.503190000000     0.322070000000     0.912370000000     0.0173961  
H64      H      0.543020000000     0.181710000000     0.567900000000     0.150612   
H65      H      0.912310000000     0.320070000000     0.492940000000     0.0182945  
H66      H      0.582630000000     0.174470000000     0.497220000000     0.0182065  
H67      H      0.807880000000     0.242630000000     0.540080000000     0.0378188  
H68      H      0.686000000000     0.254870000000     0.452000000000     0.0351784  
H69      H      0.633380000000     0.227370000000     0.496330000000     0.0586639  
H70      H      0.738780000000     0.306980000000     0.448760000000     0.0378527  
H71      H      0.727510000000     0.136600000000     0.502950000000     0.0818056  
H72      H      0.860200000000     0.268050000000     0.493120000000     0.053674   
H73      H      0.768110000000     0.361430000000     0.490620000000     0.0556622  
H74      H      0.755090000000     0.190760000000     0.543570000000     0.0351694  
H75      H      0.820740000000     0.412750000000     0.489790000000     0.0254034  
H76      H      0.680860000000     0.070020000000     0.536000000000     0.152283   
H77      H      0.911570000000     0.674920000000     0.497640000000     0.0220404  
H78      H      0.582800000000     0.821820000000     0.496120000000     0.0175295  
H79      H      0.806950000000     0.752170000000     0.449010000000     0.0377941  
H80      H      0.686130000000     0.740820000000     0.538640000000     0.03513    
H81      H      0.633200000000     0.768650000000     0.495360000000     0.0582548  
H82      H      0.738510000000     0.688350000000     0.541190000000     0.0373031  
H83      H      0.727700000000     0.858890000000     0.486870000000     0.081952   
H84      H      0.859490000000     0.726890000000     0.496000000000     0.0542464  
H85      H      0.767350000000     0.633580000000     0.499140000000     0.0536193  
H86      H      0.754470000000     0.804450000000     0.446160000000     0.0353499  
H87      H      0.819990000000     0.582240000000     0.501230000000     0.0199845  
H88      H      0.680330000000     0.926030000000     0.455480000000     0.152136   
H89      H      0.174550000000     0.413120000000     0.500120000000     0.0246647  
H90      H      0.321350000000     0.084010000000     0.494430000000     0.018695   
H91      H      0.251600000000     0.309030000000     0.450520000000     0.0386465  
H92      H      0.241330000000     0.187110000000     0.538820000000     0.0361723  
H93      H      0.268350000000     0.134600000000     0.494670000000     0.0591863  
H94      H      0.189000000000     0.239550000000     0.542750000000     0.0384185  
H95      H      0.358740000000     0.228880000000     0.485400000000     0.0828056  
H96      H      0.226680000000     0.361180000000     0.498090000000     0.0552801  
H97      H      0.133710000000     0.268730000000     0.501870000000     0.0557466  
H98      H      0.303720000000     0.256490000000     0.446270000000     0.0354197  
H99      H      0.082240000000     0.321210000000     0.504430000000     0.025001   
H100     H      0.425190000000     0.181280000000     0.452680000000     0.149741   
H101     H      0.320240000000     0.912590000000     0.499850000000     0.0192069  
H102     H      0.174400000000     0.582990000000     0.494120000000     0.022398   
H103     H      0.242610000000     0.808440000000     0.451450000000     0.0375291  
H104     H      0.255380000000     0.685890000000     0.538570000000     0.0367172  
H105     H      0.227410000000     0.633640000000     0.493840000000     0.0598481  
H106     H      0.307510000000     0.738590000000     0.541830000000     0.0378074  
H107     H      0.136750000000     0.728000000000     0.489430000000     0.0836107  
H108     H      0.268310000000     0.860430000000     0.498240000000     0.0537501  
H109     H      0.361730000000     0.768370000000     0.500660000000     0.0536135  
H110     H      0.190590000000     0.755730000000     0.448060000000     0.0356757  
H111     H      0.412950000000     0.821030000000     0.502870000000     0.0199468  
H112     H      0.069480000000     0.681280000000     0.457750000000     0.164719   
H113     H      0.674280000000     0.499190000000     0.084270000000     0.0264609  
H114     H      0.821800000000     0.492990000000     0.412520000000     0.0193514  
H115     H      0.752470000000     0.449470000000     0.187580000000     0.039289   
H116     H      0.740610000000     0.536600000000     0.310170000000     0.035357   
H117     H      0.768750000000     0.492580000000     0.362090000000     0.0587488  
H118     H      0.687940000000     0.539620000000     0.258040000000     0.0375941  
H119     H      0.859130000000     0.486400000000     0.267580000000     0.0815623  
H120     H      0.726450000000     0.497310000000     0.136110000000     0.0558053  
H121     H      0.633500000000     0.497410000000     0.228610000000     0.0539705  
H122     H      0.804940000000     0.446090000000     0.239830000000     0.0354024  
H123     H      0.581930000000     0.499680000000     0.176200000000     0.0200324  
H124     H      0.926460000000     0.454770000000     0.314600000000     0.150346   
H125     H      0.411360000000     0.490800000000     0.175620000000     0.025304   
H126     H      0.082820000000     0.498480000000     0.322800000000     0.0180251  
H127     H      0.307930000000     0.538630000000     0.253320000000     0.0387362  
H128     H      0.185240000000     0.451470000000     0.242530000000     0.035126   
H129     H      0.133410000000     0.496890000000     0.269870000000     0.0587844  
H130     H      0.237500000000     0.447570000000     0.189980000000     0.0380938  
H131     H      0.227830000000     0.502520000000     0.360360000000     0.081686   
H132     H      0.359560000000     0.491540000000     0.227800000000     0.0554084  
H133     H      0.266980000000     0.488220000000     0.134960000000     0.0543167  
H134     H      0.255700000000     0.542670000000     0.305690000000     0.0355595  
H135     H      0.319420000000     0.486910000000     0.083370000000     0.0201045  
H136     H      0.181450000000     0.536090000000     0.427120000000     0.152292   
H137     H      0.411660000000     0.500030000000     0.821980000000     0.0175408  
H138     H      0.082410000000     0.495010000000     0.675410000000     0.0182892  
H139     H      0.307430000000     0.450370000000     0.744930000000     0.0368005  
H140     H      0.185370000000     0.538320000000     0.756460000000     0.0357492  
H141     H      0.132830000000     0.494790000000     0.728600000000     0.0582276  
H142     H      0.237880000000     0.541730000000     0.808740000000     0.039093   
H143     H      0.227370000000     0.486350000000     0.638430000000     0.082248   
H144     H      0.359490000000     0.498130000000     0.770080000000     0.0534889  
H145     H      0.267490000000     0.500170000000     0.863500000000     0.0547822  
H146     H      0.254820000000     0.446600000000     0.692890000000     0.0352299  
H147     H      0.320180000000     0.502520000000     0.914730000000     0.026634   
H148     H      0.180100000000     0.454180000000     0.571570000000     0.151949   
H149     H      0.674350000000     0.494420000000     0.913640000000     0.0191887  
H150     H      0.911570000000     0.498750000000     0.674650000000     0.0169254  
H151     H      0.685800000000     0.539980000000     0.742010000000     0.0374885  
H152     H      0.809150000000     0.454270000000     0.756320000000     0.0347592  
H153     H      0.860830000000     0.498350000000     0.727480000000     0.0573982  
H154     H      0.756750000000     0.451890000000     0.808810000000     0.0369362  
H155     H      0.766660000000     0.501460000000     0.636610000000     0.0815755  
H156     H      0.726850000000     0.495010000000     0.862150000000     0.0531415  
H157     H      0.634500000000     0.492750000000     0.769080000000     0.0540284  
H158     H      0.738240000000     0.542670000000     0.689750000000     0.034922   
H159     H      0.582550000000     0.492530000000     0.821190000000     0.0191588  
H160     H      0.812990000000     0.533540000000     0.569200000000     0.149008   
H161     H      0.820400000000     0.912840000000     0.996950000000     0.0185776  
H162     H      0.672760000000     0.584420000000     0.000310000000     0.0208229  
H163     H      0.741400000000     0.809240000000     0.043780000000     0.0361574  
H164     H      0.753910000000     0.687180000000     0.955990000000     0.0363624  
H165     H      0.725590000000     0.635090000000     0.000080000000     0.0595412  
H166     H      0.806700000000     0.739260000000     0.953800000000     0.0351441  
H167     H      0.634850000000     0.729350000000     0.004890000000     0.0813182  
H168     H      0.768150000000     0.861120000000     0.997660000000     0.0522245  
H169     H      0.860900000000     0.768370000000     0.995850000000     0.0526658  
H170     H      0.688750000000     0.757120000000     0.046150000000     0.0368053  
H171     H      0.912590000000     0.820750000000     0.994550000000     0.0184156  
H172     H      0.567510000000     0.682600000000     0.036810000000     0.150044   
H173     H      0.912000000000     0.175710000000     0.006750000000     0.0227529  
H174     H      0.583400000000     0.321910000000     0.991540000000     0.0161538  
H175     H      0.810010000000     0.254010000000     0.956260000000     0.0387812  
H176     H      0.684640000000     0.241450000000     0.039220000000     0.0341915  
H177     H      0.634190000000     0.269150000000     0.992600000000     0.0575102  
H178     H      0.736950000000     0.189050000000     0.044020000000     0.0401953  
H179     H      0.728270000000     0.360210000000     0.991280000000     0.0811625  
H180     H      0.860150000000     0.227870000000     0.004990000000     0.05527    
H181     H      0.767700000000     0.134830000000     0.003050000000     0.0564651  
H182     H      0.757660000000     0.306250000000     0.951250000000     0.0328369  
H183     H      0.820120000000     0.083270000000     0.005410000000     0.0274033  
H184     H      0.681950000000     0.427620000000     0.958510000000     0.149252   
H185     H      0.083290000000     0.821690000000     0.002210000000     0.0217289  
H186     H      0.410670000000     0.673390000000     0.995870000000     0.0267838  
H187     H      0.187010000000     0.738710000000     0.043660000000     0.0398879  
H188     H      0.308060000000     0.758750000000     0.955840000000     0.0349296  
H189     H      0.360180000000     0.726340000000     0.997690000000     0.0605693  
H190     H      0.256360000000     0.811850000000     0.959350000000     0.0400609  
H191     H      0.265610000000     0.635990000000     0.992120000000     0.0808515  
H192     H      0.134960000000     0.769460000000     0.001090000000     0.0549474  
H193     H      0.227700000000     0.862120000000     0.006020000000     0.0560443  
H194     H      0.238650000000     0.685650000000     0.040130000000     0.0343154  
H195     H      0.175360000000     0.913870000000     0.006390000000     0.0247168  
H196     H      0.310020000000     0.565820000000     0.019530000000     0.152424   
H197     H      0.321360000000     0.411310000000     0.001440000000     0.0200627  
H198     H      0.173520000000     0.082970000000     0.997230000000     0.0167901  
H199     H      0.242490000000     0.307830000000     0.954380000000     0.034699   
H200     H      0.256580000000     0.184960000000     0.040810000000     0.0356361  
H201     H      0.226810000000     0.133200000000     0.997010000000     0.0569123  
H202     H      0.309420000000     0.237060000000     0.042530000000     0.0361658  
H203     H      0.136800000000     0.228250000000     0.995060000000     0.081964   
H204     H      0.269500000000     0.359220000000     0.000750000000     0.0566779  
H205     H      0.362910000000     0.267130000000     0.000160000000     0.0554386  
H206     H      0.189820000000     0.255750000000     0.952490000000     0.0354278  
H207     H      0.414250000000     0.319890000000     0.001450000000     0.0192275  
H208     H      0.068590000000     0.182810000000     0.963960000000     0.167111   
H209     H      0.583300000000     0.005190000000     0.675460000000     0.0206169  
H210     H      0.912160000000     0.999610000000     0.822520000000     0.0151673  
H211     H      0.686970000000     0.957760000000     0.753600000000     0.0390367  
H212     H      0.809490000000     0.044990000000     0.741500000000     0.0331195  
H213     H      0.861590000000     0.000610000000     0.769510000000     0.0650615  
H214     H      0.757110000000     0.048140000000     0.689020000000     0.0394987  
H215     H      0.767140000000     0.994810000000     0.859960000000     0.0810641  
H216     H      0.635190000000     0.004840000000     0.727600000000     0.0544865  
H217     H      0.727640000000     0.006260000000     0.634610000000     0.0557927  
H218     H      0.739360000000     0.954350000000     0.805840000000     0.0324808  
H219     H      0.675170000000     0.006950000000     0.583090000000     0.0251704  
H220     H      0.813590000000     0.961780000000     0.926870000000     0.148975   
H221     H      0.411520000000     0.000580000000     0.675510000000     0.0200681  
H222     H      0.082560000000     0.003440000000     0.822440000000     0.0253984  
H223     H      0.307040000000     0.049690000000     0.752620000000     0.0379758  
H224     H      0.185710000000     0.960690000000     0.741470000000     0.0370451  
H225     H      0.132950000000     0.004190000000     0.769270000000     0.0616687  
H226     H      0.238100000000     0.957680000000     0.689060000000     0.0384144  
H227     H      0.227480000000     0.012690000000     0.859420000000     0.0818599  
H228     H      0.359420000000     0.002750000000     0.727420000000     0.0558037  
H229     H      0.267320000000     0.998880000000     0.634150000000     0.0547409  
H230     H      0.254550000000     0.052970000000     0.804850000000     0.0357356  
H231     H      0.319980000000     0.996230000000     0.582880000000     0.018748   
H232     H      0.180020000000     0.044210000000     0.926480000000     0.150324   
H233     H      0.320670000000     0.003230000000     0.412100000000     0.0210367  
H234     H      0.173800000000     0.996460000000     0.083230000000     0.0173041  
H235     H      0.242710000000     0.954760000000     0.308520000000     0.0390982  
H236     H      0.255350000000     0.041370000000     0.185630000000     0.0338157  
H237     H      0.226960000000     0.997030000000     0.133670000000     0.057712   
H238     H      0.307780000000     0.044530000000     0.238050000000     0.0396644  
H239     H      0.136660000000     0.992100000000     0.228320000000     0.0817974  
H240     H      0.268660000000     0.002330000000     0.360060000000     0.0552692  
H241     H      0.361940000000     0.002410000000     0.267890000000     0.0546872  
H242     H      0.190520000000     0.951310000000     0.256060000000     0.0333512  
H243     H      0.413310000000     0.003560000000     0.320490000000     0.020554   
H244     H      0.069390000000     0.959630000000     0.182130000000     0.152656   
H245     H      0.674430000000     0.996120000000     0.413630000000     0.0235813  
H246     H      0.821260000000     0.000280000000     0.084770000000     0.0214538  
H247     H      0.751720000000     0.044500000000     0.309410000000     0.0371556  
H248     H      0.741030000000     0.955670000000     0.187930000000     0.0366731  
H249     H      0.768240000000     0.000050000000     0.135340000000     0.0600088  
H250     H      0.688660000000     0.952230000000     0.240350000000     0.0355449  
H251     H      0.858680000000     0.007990000000     0.229640000000     0.0824271  
H252     H      0.726560000000     0.997560000000     0.361720000000     0.0541749  
H253     H      0.633580000000     0.993300000000     0.269330000000     0.0542276  
H254     H      0.803920000000     0.048180000000     0.256930000000     0.0374289  
H255     H      0.582110000000     0.991230000000     0.321790000000     0.0229669  
H256     H      0.925400000000     0.040460000000     0.182440000000     0.15154    
H257     H      0.003230000000     0.412310000000     0.675720000000     0.0205472  
H258     H      0.011760000000     0.084580000000     0.824010000000     0.0211524  
H259     H      0.050880000000     0.310840000000     0.758410000000     0.0378516  
H260     H      0.970720000000     0.184670000000     0.737720000000     0.0347633  
H261     H      0.015490000000     0.134960000000     0.770970000000     0.0605455  
H262     H      0.971030000000     0.236680000000     0.684940000000     0.0371281  
H263     H      0.001980000000     0.229710000000     0.860270000000     0.0823801  
H264     H      0.005900000000     0.360510000000     0.727810000000     0.0541782  
H265     H      0.014500000000     0.268400000000     0.634770000000     0.0554161  
H266     H      0.050320000000     0.258850000000     0.811340000000     0.0365599  
H267     H      0.010890000000     0.320750000000     0.583290000000     0.022584   
H268     H      0.966150000000     0.182920000000     0.925100000000     0.147427   
H269     H      0.991960000000     0.675330000000     0.583750000000     0.0263407  
H270     H      0.995240000000     0.822630000000     0.912430000000     0.0162979  
H271     H      0.946140000000     0.755430000000     0.688240000000     0.037665   
H272     H      0.035450000000     0.740320000000     0.808890000000     0.0356575  
H273     H      0.993240000000     0.769790000000     0.861770000000     0.0564345  
H274     H      0.035490000000     0.687670000000     0.756680000000     0.0383602  
H275     H      0.989100000000     0.860690000000     0.767660000000     0.0809338  
H276     H      0.990810000000     0.727590000000     0.635560000000     0.0554624  
H277     H      0.991800000000     0.634680000000     0.728130000000     0.0522441  
H278     H      0.945900000000     0.808000000000     0.740540000000     0.0347055  
H279     H      0.993520000000     0.583080000000     0.675780000000     0.0188666  
H280     H      0.959750000000     0.928810000000     0.814800000000     0.148998   
H281     H      0.005300000000     0.911280000000     0.175620000000     0.024575   
H282     H      0.014420000000     0.582240000000     0.322220000000     0.0228835  
H283     H      0.052300000000     0.808890000000     0.257060000000     0.0378434  
H284     H      0.973100000000     0.682340000000     0.234950000000     0.0357205  
H285     H      0.018520000000     0.632550000000     0.268980000000     0.06095    
H286     H      0.973110000000     0.734880000000     0.182670000000     0.0376307  
H287     H      0.001770000000     0.727370000000     0.357600000000     0.0831286  
H288     H      0.008410000000     0.858820000000     0.227010000000     0.0555871  
H289     H      0.014630000000     0.767830000000     0.132660000000     0.0550522  
H290     H      0.051730000000     0.756490000000     0.309560000000     0.0369398  
H291     H      0.010490000000     0.820850000000     0.081960000000     0.0218762  
H292     H      0.965040000000     0.680440000000     0.421730000000     0.150674   
H293     H      0.992540000000     0.082760000000     0.176470000000     0.0242501  
H294     H      0.994890000000     0.412570000000     0.322540000000     0.0153362  
H295     H      0.945870000000     0.187540000000     0.256430000000     0.0375832  
H296     H      0.034220000000     0.308790000000     0.239930000000     0.0354055  
H297     H      0.992540000000     0.361830000000     0.269690000000     0.0567784  
H298     H      0.034360000000     0.256130000000     0.187730000000     0.0392987  
H299     H      0.988570000000     0.267750000000     0.360640000000     0.0811965  
H300     H      0.991170000000     0.134840000000     0.228590000000     0.0550088  
H301     H      0.990070000000     0.227070000000     0.135360000000     0.0548319  
H302     H      0.945420000000     0.240340000000     0.308500000000     0.0349394  
H303     H      0.991780000000     0.174580000000     0.084000000000     0.0258992  
H304     H      0.959440000000     0.314750000000     0.428670000000     0.151628   
N1       N      0.491790000000     0.123280000000     0.369630000000    -0.24665    
N2       N      0.489980000000     0.369200000000     0.124450000000    -0.217689   
N3       N      0.501470000000     0.623400000000     0.127950000000    -0.241098   
N4       N      0.505840000000     0.870230000000     0.372170000000    -0.218051   
N5       N      0.488290000000     0.627190000000     0.873240000000    -0.243028   
N6       N      0.492580000000     0.872310000000     0.626740000000    -0.215138   
N7       N      0.506600000000     0.128000000000     0.623560000000    -0.242858   
N8       N      0.504080000000     0.372530000000     0.870750000000    -0.220615   
N9       N      0.625120000000     0.124740000000     0.501030000000    -0.246391   
N10      N      0.870580000000     0.370400000000     0.491700000000    -0.217273   
N11      N      0.625480000000     0.871340000000     0.491830000000    -0.243712   
N12      N      0.869840000000     0.624580000000     0.499370000000    -0.215032   
N13      N      0.370940000000     0.126570000000     0.489790000000    -0.242862   
N14      N      0.124370000000     0.371220000000     0.502140000000    -0.219333   
N15      N      0.124700000000     0.625610000000     0.491780000000    -0.2427     
N16      N      0.370600000000     0.870890000000     0.501190000000    -0.215338   
N17      N      0.871430000000     0.489880000000     0.369870000000    -0.243697   
N18      N      0.624080000000     0.499340000000     0.126190000000    -0.214736   
N19      N      0.125440000000     0.501560000000     0.372470000000    -0.246541   
N20      N      0.369410000000     0.489280000000     0.125470000000    -0.21702    
N21      N      0.125130000000     0.490720000000     0.625950000000    -0.243242   
N22      N      0.370010000000     0.501090000000     0.872360000000    -0.219804   
N23      N      0.869090000000     0.500650000000     0.624820000000    -0.241206   
N24      N      0.624390000000     0.493760000000     0.871420000000    -0.21785    
N25      N      0.622930000000     0.626910000000     0.002980000000    -0.240242   
N26      N      0.870550000000     0.870830000000     0.995970000000    -0.215174   
N27      N      0.625840000000     0.371840000000     0.990890000000    -0.2442     
N28      N      0.870100000000     0.125480000000     0.005750000000    -0.216146   
N29      N      0.367990000000     0.623670000000     0.994070000000    -0.242998   
N30      N      0.125320000000     0.871810000000     0.003980000000    -0.216479   
N31      N      0.124030000000     0.125890000000     0.995760000000    -0.245684   
N32      N      0.371820000000     0.369670000000     0.001230000000    -0.221265   
N33      N      0.869510000000     0.996370000000     0.872140000000    -0.241913   
N34      N      0.625190000000     0.005750000000     0.625250000000    -0.216308   
N35      N      0.125260000000     0.007640000000     0.871930000000    -0.241976   
N36      N      0.369830000000     0.998470000000     0.625180000000    -0.218763   
N37      N      0.124260000000     0.993700000000     0.126000000000    -0.246089   
N38      N      0.371000000000     0.003230000000     0.370360000000    -0.216926   
N39      N      0.870870000000     0.004340000000     0.127350000000    -0.242189   
N40      N      0.624250000000     0.993840000000     0.371760000000    -0.219769   
N41      N      0.004710000000     0.127390000000     0.873110000000    -0.243794   
N42      N      0.006470000000     0.370530000000     0.625500000000    -0.217285   
N43      N      0.993000000000     0.872520000000     0.870020000000    -0.240903   
N44      N      0.993020000000     0.625180000000     0.625710000000    -0.214337   
N45      N      0.005680000000     0.625130000000     0.370960000000    -0.243201   
N46      N      0.007350000000     0.870150000000     0.124840000000    -0.215968   
N47      N      0.992530000000     0.370150000000     0.372380000000    -0.2463     
N48      N      0.992360000000     0.124580000000     0.126230000000    -0.218506   
O1       O      0.994370000000     0.107120000000     0.057550000000    -0.620434   
O2       O      0.002020000000     0.888520000000     0.056470000000    -0.561251   
O3       O      0.939720000000     0.002310000000     0.109060000000    -0.594688   
O4       O      0.055380000000     0.995140000000     0.107910000000    -0.61204    
O5       O      0.106630000000     0.995680000000     0.056990000000    -0.623245   
O6       O      0.888330000000     0.000830000000     0.058360000000    -0.561532   
O7       O      0.003240000000     0.939180000000     0.108210000000    -0.597397   
O8       O      0.994640000000     0.055660000000     0.108530000000    -0.61086    
O9       O      0.037760000000     0.958510000000     0.038500000000    -1.45329    
O10      O      0.957640000000     0.038090000000     0.039500000000    -1.45416    
O11      O      0.951500000000     0.951560000000     0.040260000000    -1.04963    
O12      O      0.039010000000     0.039850000000     0.040910000000    -1.61969    
O13      O      0.995680000000     0.889530000000     0.939170000000    -0.563345   
O14      O      0.002080000000     0.108890000000     0.941900000000    -0.593686   
O15      O      0.888010000000     0.939680000000     0.997500000000    -0.563861   
O16      O      0.107620000000     0.940630000000     0.003120000000    -0.604203   
O17      O      0.106450000000     0.056890000000     0.996830000000    -0.624203   
O18      O      0.887900000000     0.056780000000     0.002650000000    -0.559009   
O19      O      0.938620000000     0.998020000000     0.889550000000    -0.562167   
O20      O      0.056370000000     0.002900000000     0.889610000000    -0.557529   
O21      O      0.887840000000     0.997010000000     0.941000000000    -0.552656   
O22      O      0.107260000000     0.004660000000     0.940850000000    -0.595627   
O23      O      0.939380000000     0.888570000000     0.996780000000    -0.563077   
O24      O      0.938950000000     0.108100000000     0.004560000000    -0.603249   
O25      O      0.055060000000     0.107680000000     0.997290000000    -0.606804   
O26      O      0.056590000000     0.889300000000     0.000550000000    -0.562535   
O27      O      0.995590000000     0.941300000000     0.888720000000    -0.554472   
O28      O      0.000620000000     0.058430000000     0.890220000000    -0.564367   
O29      O      0.037420000000     0.039040000000     0.959510000000    -1.45646    
O30      O      0.957800000000     0.959090000000     0.958900000000    -1.35836    
O31      O      0.950990000000     0.040250000000     0.953220000000    -1.04855    
O32      O      0.039180000000     0.952820000000     0.952150000000    -1.04283    
O33      O      0.995000000000     0.388670000000     0.441110000000    -0.61673    
O34      O      0.000770000000     0.607080000000     0.439740000000    -0.551191   
O35      O      0.940300000000     0.492490000000     0.388200000000    -0.600518   
O36      O      0.056360000000     0.500160000000     0.389730000000    -0.625027   
O37      O      0.106960000000     0.500650000000     0.441290000000    -0.620718   
O38      O      0.888800000000     0.494150000000     0.438800000000    -0.573088   
O39      O      0.003440000000     0.556090000000     0.388620000000    -0.601792   
O40      O      0.995320000000     0.439340000000     0.389590000000    -0.62199    
O41      O      0.037820000000     0.537650000000     0.458620000000    -1.46854    
O42      O      0.958240000000     0.457600000000     0.458270000000    -1.4705     
O43      O      0.951510000000     0.543910000000     0.456470000000    -1.0624     
O44      O      0.039500000000     0.456250000000     0.457220000000    -1.63671    
O45      O      0.995110000000     0.607560000000     0.556860000000    -0.556829   
O46      O      0.003360000000     0.388110000000     0.556800000000    -0.60729    
O47      O      0.887760000000     0.555860000000     0.499010000000    -0.56921    
O48      O      0.107290000000     0.556530000000     0.494080000000    -0.610171   
O49      O      0.106800000000     0.440110000000     0.501380000000    -0.624015   
O50      O      0.888310000000     0.439050000000     0.494760000000    -0.572489   
O51      O      0.938280000000     0.499260000000     0.607730000000    -0.564476   
O52      O      0.056180000000     0.494950000000     0.608150000000    -0.566046   
O53      O      0.887730000000     0.499200000000     0.556050000000    -0.557064   
O54      O      0.107180000000     0.492960000000     0.557040000000    -0.605378   
O55      O      0.938780000000     0.607310000000     0.499060000000    -0.560721   
O56      O      0.939500000000     0.387850000000     0.493980000000    -0.607863   
O57      O      0.055610000000     0.388840000000     0.501390000000    -0.619488   
O58      O      0.055920000000     0.607290000000     0.495540000000    -0.550637   
O59      O      0.995280000000     0.556380000000     0.608170000000    -0.567016   
O60      O      0.000780000000     0.439190000000     0.608040000000    -0.567332   
O61      O      0.037550000000     0.458030000000     0.538590000000    -1.47053    
O62      O      0.957500000000     0.537470000000     0.538050000000    -1.36879    
O63      O      0.951170000000     0.456270000000     0.544630000000    -1.0623     
O64      O      0.038780000000     0.544310000000     0.544970000000    -1.04841    
O65      O      0.606720000000     0.995330000000     0.440590000000    -0.618971   
O66      O      0.388310000000     0.000850000000     0.439250000000    -0.563865   
O67      O      0.503060000000     0.939080000000     0.389170000000    -0.612684   
O68      O      0.494630000000     0.054710000000     0.388700000000    -0.614791   
O69      O      0.494780000000     0.106710000000     0.438850000000    -0.629419   
O70      O      0.501210000000     0.888320000000     0.440750000000    -0.572743   
O71      O      0.439690000000     0.001730000000     0.388270000000    -0.606427   
O72      O      0.555500000000     0.994560000000     0.389390000000    -0.62294    
O73      O      0.457970000000     0.038070000000     0.457770000000    -1.46901    
O74      O      0.537710000000     0.958040000000     0.458840000000    -1.47262    
O75      O      0.451350000000     0.951600000000     0.457310000000    -1.06141    
O76      O      0.539300000000     0.039430000000     0.456250000000    -1.64164    
O77      O      0.387750000000     0.997880000000     0.556470000000    -0.56503    
O78      O      0.607460000000     0.003670000000     0.556520000000    -0.602115   
O79      O      0.439290000000     0.888690000000     0.500670000000    -0.570303   
O80      O      0.439830000000     0.108350000000     0.492050000000    -0.601588   
O81      O      0.555990000000     0.107420000000     0.499430000000    -0.629479   
O82      O      0.556580000000     0.888980000000     0.496420000000    -0.573882   
O83      O      0.495230000000     0.941100000000     0.608680000000    -0.562685   
O84      O      0.501330000000     0.058860000000     0.606890000000    -0.566357   
O85      O      0.495480000000     0.889350000000     0.557910000000    -0.570306   
O86      O      0.503310000000     0.109010000000     0.554920000000    -0.601604   
O87      O      0.387960000000     0.939880000000     0.500040000000    -0.561065   
O88      O      0.607370000000     0.940260000000     0.493770000000    -0.600707   
O89      O      0.606680000000     0.055950000000     0.500510000000    -0.614334   
O90      O      0.388450000000     0.057590000000     0.494280000000    -0.564924   
O91      O      0.438800000000     0.998960000000     0.607910000000    -0.564743   
O92      O      0.556350000000     0.002390000000     0.607800000000    -0.565032   
O93      O      0.537630000000     0.038880000000     0.537710000000    -1.47075    
O94      O      0.457820000000     0.959210000000     0.538510000000    -1.36415    
O95      O      0.539020000000     0.952590000000     0.545270000000    -1.05946    
O96      O      0.451390000000     0.040660000000     0.543990000000    -1.04577    
O97      O      0.440480000000     0.387950000000     0.999960000000    -0.630596   
O98      O      0.436990000000     0.606540000000     0.997430000000    -0.565825   
O99      O      0.387120000000     0.491140000000     0.056700000000    -0.607496   
O100     O      0.387920000000     0.499910000000     0.941010000000    -0.621425   
O101     O      0.438990000000     0.500800000000     0.889630000000    -0.629456   
O102     O      0.438170000000     0.493230000000     0.107990000000    -0.56971    
O103     O      0.386690000000     0.554820000000     0.994440000000    -0.600097   
O104     O      0.388740000000     0.438660000000     0.000640000000    -0.621879   
O105     O      0.456600000000     0.537660000000     0.959110000000    -1.46511    
O106     O      0.457470000000     0.456790000000     0.038000000000    -1.46587    
O107     O      0.454920000000     0.543120000000     0.045670000000    -1.05889    
O108     O      0.456070000000     0.456310000000     0.956600000000    -1.63325    
O109     O      0.554120000000     0.608150000000     0.001490000000    -0.547721   
O110     O      0.556700000000     0.388770000000     0.992720000000    -0.612994   
O111     O      0.498660000000     0.554750000000     0.109010000000    -0.55964    
O112     O      0.491360000000     0.557830000000     0.889720000000    -0.612414   
O113     O      0.500950000000     0.441230000000     0.888920000000    -0.628066   
O114     O      0.494060000000     0.437940000000     0.107410000000    -0.576545   
O115     O      0.606620000000     0.499570000000     0.057320000000    -0.558403   
O116     O      0.606570000000     0.496640000000     0.940100000000    -0.570729   
O117     O      0.555320000000     0.498280000000     0.108480000000    -0.567269   
O118     O      0.555480000000     0.495080000000     0.888810000000    -0.613998   
O119     O      0.498180000000     0.606700000000     0.058780000000    -0.560086   
O120     O      0.492890000000     0.387250000000     0.055730000000    -0.605561   
O121     O      0.501310000000     0.389450000000     0.939620000000    -0.627101   
O122     O      0.492420000000     0.607940000000     0.941730000000    -0.556765   
O123     O      0.605940000000     0.557740000000     0.001000000000    -0.561661   
O124     O      0.607060000000     0.440500000000     0.995040000000    -0.56035    
O125     O      0.537290000000     0.458850000000     0.958210000000    -1.4684     
O126     O      0.536410000000     0.537510000000     0.039060000000    -1.37139    
O127     O      0.543770000000     0.456240000000     0.044520000000    -1.06294    
O128     O      0.542780000000     0.545240000000     0.957810000000    -1.05697    
O129     O      0.486900000000     0.073340000000     0.316140000000    -0.298352   
O130     O      0.505490000000     0.573580000000     0.181640000000    -0.29657    
O131     O      0.487290000000     0.680880000000     0.923220000000    -0.295798   
O132     O      0.513430000000     0.181410000000     0.573790000000    -0.289911   
O133     O      0.679170000000     0.075450000000     0.506380000000    -0.295876   
O134     O      0.679590000000     0.920380000000     0.485100000000    -0.295647   
O135     O      0.420020000000     0.180540000000     0.482390000000    -0.289738   
O136     O      0.075440000000     0.679710000000     0.487270000000    -0.291973   
O137     O      0.920580000000     0.484340000000     0.315770000000    -0.298261   
O138     O      0.179580000000     0.506470000000     0.421650000000    -0.297331   
O139     O      0.179290000000     0.483850000000     0.577020000000    -0.29472    
O140     O      0.815030000000     0.504070000000     0.575400000000    -0.2961     
O141     O      0.573550000000     0.680920000000     0.007300000000    -0.296605   
O142     O      0.679770000000     0.421410000000     0.987950000000    -0.298145   
O143     O      0.313770000000     0.574380000000     0.990850000000    -0.300412   
O144     O      0.075080000000     0.180410000000     0.993310000000    -0.297927   
O145     O      0.815320000000     0.991390000000     0.921280000000    -0.298963   
O146     O      0.179370000000     0.014560000000     0.920900000000    -0.296285   
O147     O      0.075210000000     0.989190000000     0.180320000000    -0.297183   
O148     O      0.920000000000     0.010790000000     0.181370000000    -0.293756   
O149     O      0.996100000000     0.181590000000     0.921680000000    -0.305462   
O150     O      0.989130000000     0.922020000000     0.816060000000    -0.298716   
O151     O      0.995070000000     0.679480000000     0.419020000000    -0.304543   
O152     O      0.988800000000     0.316120000000     0.421840000000    -0.300668   


