data_structure

_audit_creation_method RASPA-1.0
_audit_creation_date 2023-5-19
_audit_author_name 'Poobodin Mano'

_cell_length_a    20.7373
_cell_length_b    20.7036
_cell_length_c    20.6711
_cell_angle_alpha 90
_cell_angle_beta  90
_cell_angle_gamma 90
_cell_volume      8874.86

_symmetry_cell_setting          triclinic
_symmetry_space_group_name_Hall 'P 1'
_symmetry_space_group_name_H-M  'P 1'
_symmetry_Int_Tables_number     1

_symmetry_equiv_pos_as_xyz 'x,y,z'

loop_
_atom_site_label
_atom_site_type_symbol
_atom_site_fract_x
_atom_site_fract_y
_atom_site_fract_z
_atom_site_charge
C1       C      0.989280000000     0.148960000000     0.157660000000     0.501989   
C2       C      0.001300000000     0.841140000000     0.154230000000     0.512034   
C3       C      0.836320000000     0.003860000000     0.154680000000     0.507947   
C4       C      0.145560000000     0.992250000000     0.156370000000     0.500921   
C5       C      0.994890000000     0.842900000000     0.843360000000     0.497212   
C6       C      0.005230000000     0.155580000000     0.848220000000     0.513166   
C7       C      0.838860000000     0.840520000000     0.992760000000     0.497201   
C8       C      0.148150000000     0.841620000000     0.004410000000     0.505946   
C9       C      0.147010000000     0.151730000000     0.999950000000     0.500597   
C10      C      0.837900000000     0.151950000000     0.004600000000     0.507012   
C11      C      0.840240000000     0.995060000000     0.842690000000     0.494905   
C12      C      0.150550000000     0.005520000000     0.847320000000     0.509507   
C13      C      0.989690000000     0.340150000000     0.346440000000     0.503626   
C14      C      0.002550000000     0.648950000000     0.341020000000     0.515603   
C15      C      0.838620000000     0.486540000000     0.343190000000     0.50887    
C16      C      0.146610000000     0.500300000000     0.344090000000     0.501529   
C17      C      0.987870000000     0.653800000000     0.652740000000     0.494595   
C18      C      0.005660000000     0.342970000000     0.655580000000     0.507777   
C19      C      0.835150000000     0.648800000000     0.496970000000     0.495615   
C20      C      0.144000000000     0.656360000000     0.491410000000     0.511604   
C21      C      0.152610000000     0.347190000000     0.502260000000     0.504082   
C22      C      0.841510000000     0.337970000000     0.494320000000     0.50431    
C23      C      0.836770000000     0.499780000000     0.652950000000     0.501152   
C24      C      0.148180000000     0.493700000000     0.654440000000     0.504642   
C25      C      0.644120000000     0.992420000000     0.342230000000     0.499682   
C26      C      0.333940000000     0.005690000000     0.348060000000     0.508986   
C27      C      0.494380000000     0.843420000000     0.341680000000     0.514826   
C28      C      0.487410000000     0.150250000000     0.343640000000     0.509695   
C29      C      0.342510000000     0.997640000000     0.659470000000     0.502247   
C30      C      0.652480000000     0.995110000000     0.651250000000     0.507908   
C31      C      0.334940000000     0.844690000000     0.502640000000     0.497647   
C32      C      0.341540000000     0.155710000000     0.496930000000     0.503073   
C33      C      0.652370000000     0.146630000000     0.501320000000     0.504901   
C34      C      0.643560000000     0.836750000000     0.488680000000     0.509691   
C35      C      0.486250000000     0.841660000000     0.654420000000     0.497676   
C36      C      0.507680000000     0.151710000000     0.654900000000     0.504691   
C37      C      0.339460000000     0.340010000000     0.002920000000     0.50568    
C38      C      0.338020000000     0.652300000000     0.991160000000     0.507658   
C39      C      0.338070000000     0.491320000000     0.155450000000     0.511432   
C40      C      0.339010000000     0.494900000000     0.843230000000     0.500591   
C41      C      0.647800000000     0.651670000000     0.999830000000     0.494525   
C42      C      0.646810000000     0.339610000000     0.991970000000     0.51305    
C43      C      0.496270000000     0.651240000000     0.153580000000     0.499133   
C44      C      0.481400000000     0.650120000000     0.842350000000     0.510965   
C45      C      0.504120000000     0.342760000000     0.843660000000     0.506859   
C46      C      0.484500000000     0.341440000000     0.154130000000     0.506715   
C47      C      0.646470000000     0.496350000000     0.155740000000     0.505284   
C48      C      0.648090000000     0.492060000000     0.843760000000     0.507104   
C49      C      0.482450000000     0.309010000000     0.265030000000     0.0317284  
C50      C      0.484570000000     0.230460000000     0.183030000000     0.00789246 
C51      C      0.483520000000     0.260330000000     0.311840000000     0.0304989  
C52      C      0.486540000000     0.180840000000     0.229340000000     0.101089   
C53      C      0.491060000000     0.112520000000     0.202780000000    -0.173508   
C54      C      0.495640000000     0.684290000000     0.264140000000     0.0322358  
C55      C      0.497210000000     0.762390000000     0.181640000000     0.00639103 
C56      C      0.494610000000     0.733230000000     0.310500000000     0.0334406  
C57      C      0.495910000000     0.812320000000     0.227590000000     0.107484   
C58      C      0.494280000000     0.880600000000     0.200700000000    -0.176431   
C59      C      0.490960000000     0.808690000000     0.764790000000     0.0312017  
C60      C      0.468210000000     0.732190000000     0.683850000000     0.00411516 
C61      C      0.489120000000     0.760050000000     0.811410000000     0.0328177  
C62      C      0.463360000000     0.683190000000     0.730620000000     0.107772   
C63      C      0.439880000000     0.617950000000     0.707230000000    -0.180189   
C64      C      0.499780000000     0.184150000000     0.765310000000     0.0309606  
C65      C      0.524180000000     0.261200000000     0.685430000000     0.00514947 
C66      C      0.498640000000     0.232770000000     0.812080000000     0.0292998  
C67      C      0.526360000000     0.310180000000     0.732510000000     0.103826   
C68      C      0.551270000000     0.375410000000     0.710620000000    -0.179513   
C69      C      0.731340000000     0.304880000000     0.492430000000     0.0320995  
C70      C      0.813030000000     0.226640000000     0.499900000000     0.00665278 
C71      C      0.684680000000     0.256380000000     0.495060000000     0.0315342  
C72      C      0.766530000000     0.177200000000     0.504330000000     0.103689   
C73      C      0.792020000000     0.109620000000     0.515970000000    -0.179464   
C74      C      0.801850000000     0.758870000000     0.494190000000     0.0311161  
C75      C      0.723990000000     0.676540000000     0.489130000000     0.00349314 
C76      C      0.753310000000     0.805260000000     0.490710000000     0.0351164  
C77      C      0.674440000000     0.722770000000     0.484410000000     0.107222   
C78      C      0.606790000000     0.696840000000     0.474540000000    -0.18252    
C79      C      0.231640000000     0.188880000000     0.503790000000     0.0308194  
C80      C      0.312770000000     0.266990000000     0.490760000000     0.00639831 
C81      C      0.185110000000     0.237480000000     0.505630000000     0.0312357  
C82      C      0.266280000000     0.316670000000     0.491230000000     0.100542   
C83      C      0.291220000000     0.384590000000     0.479620000000    -0.175331   
C84      C      0.301830000000     0.734580000000     0.501560000000     0.0320188  
C85      C      0.224010000000     0.816710000000     0.493110000000     0.00581911 
C86      C      0.253520000000     0.688050000000     0.497350000000     0.0366416  
C87      C      0.174820000000     0.770290000000     0.486690000000     0.108554   
C88      C      0.107680000000     0.795880000000     0.472940000000    -0.183064   
C89      C      0.805360000000     0.488290000000     0.232760000000     0.0352835  
C90      C      0.727560000000     0.487450000000     0.315450000000     0.00719793 
C91      C      0.756450000000     0.491850000000     0.186580000000     0.0335237  
C92      C      0.677640000000     0.491370000000     0.269700000000     0.106121   
C93      C      0.609510000000     0.493030000000     0.296760000000    -0.17878    
C94      C      0.179470000000     0.491760000000     0.233700000000     0.0275909  
C95      C      0.257520000000     0.501480000000     0.315490000000     0.00325911 
C96      C      0.228200000000     0.488920000000     0.187190000000     0.0335706  
C97      C      0.307290000000     0.497650000000     0.269530000000     0.105153   
C98      C      0.375530000000     0.500450000000     0.296180000000    -0.178967   
C99      C      0.181200000000     0.504790000000     0.764370000000     0.0316495  
C100     C      0.257360000000     0.476250000000     0.685060000000     0.00799166 
C101     C      0.229750000000     0.505210000000     0.811160000000     0.0322062  
C102     C      0.306010000000     0.472780000000     0.732360000000     0.0975865  
C103     C      0.369850000000     0.443750000000     0.711520000000    -0.172877   
C104     C      0.758350000000     0.487990000000     0.811210000000     0.0327061  
C105     C      0.677320000000     0.504630000000     0.733400000000     0.00531085 
C106     C      0.805160000000     0.491070000000     0.762810000000     0.0343759  
C107     C      0.723980000000     0.510300000000     0.684480000000     0.105876   
C108     C      0.699630000000     0.530150000000     0.618150000000    -0.180764   
C109     C      0.680540000000     0.762240000000     0.003620000000     0.0329405  
C110     C      0.757860000000     0.681030000000     0.986420000000     0.00562636 
C111     C      0.729030000000     0.809060000000     0.000920000000     0.0354671  
C112     C      0.806720000000     0.727790000000     0.980610000000     0.108618   
C113     C      0.872450000000     0.703630000000     0.959470000000    -0.183683   
C114     C      0.804720000000     0.262190000000     0.007830000000     0.0336229  
C115     C      0.728060000000     0.180530000000     0.989360000000     0.00475627 
C116     C      0.756310000000     0.308740000000     0.003040000000     0.0349997  
C117     C      0.679290000000     0.226930000000     0.981770000000     0.108545   
C118     C      0.613950000000     0.202120000000     0.960030000000    -0.180465   
C119     C      0.180200000000     0.730890000000     0.003970000000     0.0307393  
C120     C      0.258250000000     0.812380000000     0.992060000000     0.00674866 
C121     C      0.228300000000     0.683920000000     0.998960000000     0.0335905  
C122     C      0.306780000000     0.765670000000     0.984030000000     0.10682    
C123     C      0.372980000000     0.790660000000     0.965310000000    -0.181943   
C124     C      0.180320000000     0.262250000000     0.004270000000     0.0288268  
C125     C      0.258140000000     0.180040000000     0.998760000000     0.00430397 
C126     C      0.229300000000     0.308650000000     0.005180000000     0.0305203  
C127     C      0.308120000000     0.225980000000     0.999980000000     0.100585   
C128     C      0.376270000000     0.199170000000     0.997570000000    -0.175048   
C129     C      0.731270000000     0.007580000000     0.808950000000     0.0333613  
C130     C      0.810320000000     0.977740000000     0.732940000000     0.00468405 
C131     C      0.684790000000     0.007770000000     0.760260000000     0.0365205  
C132     C      0.763130000000     0.973780000000     0.684160000000     0.106065   
C133     C      0.783210000000     0.942880000000     0.620780000000    -0.178629   
C134     C      0.184120000000     0.006800000000     0.737130000000     0.0337386  
C135     C      0.261790000000     0.001330000000     0.819760000000     0.0104193  
C136     C      0.232860000000     0.003900000000     0.690840000000     0.0355114  
C137     C      0.311550000000     0.996960000000     0.773720000000     0.103706   
C138     C      0.379320000000     0.988660000000     0.800220000000    -0.180811   
C139     C      0.255740000000     0.996400000000     0.189350000000     0.0278072  
C140     C      0.173860000000     0.998240000000     0.267850000000     0.000693016
C141     C      0.302180000000     0.001170000000     0.237960000000     0.0361837  
C142     C      0.219930000000     0.005470000000     0.317340000000     0.105855   
C143     C      0.193680000000     0.014480000000     0.385280000000    -0.179877   
C144     C      0.677000000000     0.991980000000     0.231240000000     0.0303378  
C145     C      0.753820000000     0.007680000000     0.313320000000     0.00525843 
C146     C      0.725900000000     0.995830000000     0.184710000000     0.0319765  
C147     C      0.802750000000     0.015410000000     0.267050000000     0.106261   
C148     C      0.867750000000     0.037640000000     0.292190000000    -0.178071   
C149     C      0.008530000000     0.232790000000     0.688890000000     0.0350243  
C150     C      0.013300000000     0.315210000000     0.766910000000     0.00585769 
C151     C      0.008450000000     0.186520000000     0.737890000000     0.0340601  
C152     C      0.014790000000     0.269160000000     0.816900000000     0.108081   
C153     C      0.022520000000     0.295370000000     0.884990000000    -0.178698   
C154     C      0.978160000000     0.764040000000     0.685520000000     0.0311569  
C155     C      0.006620000000     0.684620000000     0.761750000000     0.00618048 
C156     C      0.980750000000     0.811160000000     0.733930000000     0.033968   
C157     C      0.013300000000     0.731980000000     0.809900000000     0.106283   
C158     C      0.044310000000     0.710810000000     0.872930000000    -0.180885   
C159     C      0.997190000000     0.807790000000     0.264200000000     0.034784   
C160     C      0.016590000000     0.731050000000     0.182570000000     0.00637561 
C161     C      0.997520000000     0.758920000000     0.310390000000     0.0326099  
C162     C      0.019920000000     0.681580000000     0.228950000000     0.108976   
C163     C      0.040350000000     0.615560000000     0.204820000000    -0.180253   
C164     C      0.975750000000     0.306410000000     0.237080000000     0.0305052  
C165     C      0.004620000000     0.230270000000     0.316430000000     0.00502751 
C166     C      0.975880000000     0.257840000000     0.190260000000     0.032242   
C167     C      0.008680000000     0.181640000000     0.269100000000     0.0985069  
C168     C      0.038740000000     0.118190000000     0.289780000000    -0.174488   
Eu1      Eu     0.990600000000     0.994590000000     0.114510000000     3.45733    
Eu2      Eu     0.993500000000     0.882200000000     0.999030000000     3.03052    
Eu3      Eu     0.991850000000     0.111390000000     0.001070000000     3.48691    
Eu4      Eu     0.877860000000     0.996570000000     0.998880000000     3.01596    
Eu5      Eu     0.107140000000     0.996230000000     0.000680000000     3.53236    
Eu6      Eu     0.994730000000     0.998500000000     0.884570000000     3.03886    
Eu7      Eu     0.992000000000     0.495940000000     0.384300000000     3.4878     
Eu8      Eu     0.990370000000     0.611880000000     0.497560000000     3.04163    
Eu9      Eu     0.995100000000     0.382160000000     0.501400000000     3.47728    
Eu10     Eu     0.878600000000     0.494040000000     0.498520000000     3.03905    
Eu11     Eu     0.106930000000     0.500600000000     0.499990000000     3.49545    
Eu12     Eu     0.992950000000     0.498110000000     0.614470000000     3.04187    
Eu13     Eu     0.489480000000     0.996120000000     0.385440000000     3.47923    
Eu14     Eu     0.378370000000     0.999550000000     0.502490000000     3.03622    
Eu15     Eu     0.606930000000     0.992540000000     0.498140000000     3.46717    
Eu16     Eu     0.490020000000     0.881460000000     0.498850000000     3.05761    
Eu17     Eu     0.495280000000     0.111530000000     0.500470000000     3.46794    
Eu18     Eu     0.496060000000     0.996540000000     0.614810000000     3.04254    
Eu19     Eu     0.377640000000     0.496890000000     0.999670000000     3.42844    
Eu20     Eu     0.492780000000     0.611060000000     0.998430000000     3.0396     
Eu21     Eu     0.493810000000     0.382280000000     0.999670000000     3.48846    
Eu22     Eu     0.492350000000     0.496350000000     0.113580000000     3.0598     
Eu23     Eu     0.493860000000     0.497100000000     0.884800000000     3.49972    
Eu24     Eu     0.608240000000     0.495960000000     0.999160000000     3.04682    
H1       H      0.931930000000     0.935670000000     0.105770000000    -0.170002   
H2       H      0.085330000000     0.089420000000     0.096110000000     0.415655   
H3       H      0.934610000000     0.104110000000     0.940780000000    -0.18296    
H4       H      0.100260000000     0.938550000000     0.940960000000    -0.186983   
H5       H      0.932900000000     0.554400000000     0.391050000000    -0.176634   
H6       H      0.088050000000     0.403930000000     0.406110000000     0.414032   
H7       H      0.936330000000     0.389450000000     0.560200000000    -0.179831   
H8       H      0.098150000000     0.559760000000     0.558440000000    -0.177129   
H9       H      0.429730000000     0.938710000000     0.394010000000    -0.175371   
H10      H      0.586340000000     0.088630000000     0.404150000000     0.41364    
H11      H      0.598980000000     0.933470000000     0.556490000000    -0.179015   
H12      H      0.438010000000     0.104790000000     0.560590000000    -0.18214    
H13      H      0.385930000000     0.555950000000     0.057890000000    -0.175396   
H14      H      0.400650000000     0.401290000000     0.904920000000     0.411245   
H15      H      0.552190000000     0.389630000000     0.058820000000    -0.173554   
H16      H      0.552150000000     0.556380000000     0.892130000000    -0.174117   
H17      H      0.482550000000     0.275680000000     0.361970000000     0.0278441  
H18      H      0.481230000000     0.358680000000     0.281550000000     0.0243147  
H19      H      0.485470000000     0.217050000000     0.132330000000     0.0340763  
H20      H      0.447320000000     0.084550000000     0.215930000000     0.0741829  
H21      H      0.494020000000     0.111270000000     0.149110000000     0.0513568  
H22      H      0.535590000000     0.088560000000     0.220530000000     0.0676689  
H23      H      0.492900000000     0.718060000000     0.360620000000     0.0264355  
H24      H      0.495030000000     0.634710000000     0.280990000000     0.0248401  
H25      H      0.498040000000     0.775520000000     0.130840000000     0.0386047  
H26      H      0.538260000000     0.907290000000     0.215440000000     0.0771839  
H27      H      0.493390000000     0.881740000000     0.146960000000     0.0537028  
H28      H      0.449860000000     0.905890000000     0.216780000000     0.0711108  
H29      H      0.499300000000     0.774290000000     0.860830000000     0.0278724  
H30      H      0.501560000000     0.857410000000     0.780830000000     0.0286074  
H31      H      0.458700000000     0.719780000000     0.633740000000     0.0382224  
H32      H      0.400690000000     0.600050000000     0.739090000000     0.0839858  
H33      H      0.418810000000     0.620470000000     0.657860000000     0.0560622  
H34      H      0.480610000000     0.583180000000     0.705240000000     0.0674914  
H35      H      0.486710000000     0.218350000000     0.861040000000     0.0211823  
H36      H      0.489350000000     0.135240000000     0.780850000000     0.02678    
H37      H      0.535550000000     0.273790000000     0.635750000000     0.03891    
H38      H      0.589080000000     0.392520000000     0.744420000000     0.0855835  
H39      H      0.574530000000     0.373070000000     0.662240000000     0.056813   
H40      H      0.511190000000     0.410700000000     0.707090000000     0.0659227  
H41      H      0.634830000000     0.271880000000     0.492160000000     0.0274866  
H42      H      0.714770000000     0.354380000000     0.488220000000     0.0292812  
H43      H      0.863580000000     0.213390000000     0.502450000000     0.038202   
H44      H      0.782550000000     0.078450000000     0.473320000000     0.0672607  
H45      H      0.844970000000     0.108750000000     0.524150000000     0.0550482  
H46      H      0.769890000000     0.089520000000     0.560470000000     0.0811085  
H47      H      0.768620000000     0.855300000000     0.492030000000     0.0273144  
H48      H      0.851220000000     0.775810000000     0.497530000000     0.0302342  
H49      H      0.710960000000     0.625820000000     0.487560000000     0.0357556  
H50      H      0.584260000000     0.720320000000     0.431990000000     0.0796528  
H51      H      0.606360000000     0.644160000000     0.464190000000     0.0549019  
H52      H      0.577460000000     0.704330000000     0.518850000000     0.0729492  
H53      H      0.135580000000     0.222080000000     0.512280000000     0.029786   
H54      H      0.215270000000     0.139420000000     0.508960000000     0.0278541  
H55      H      0.363040000000     0.280080000000     0.484420000000     0.0371092  
H56      H      0.284510000000     0.414600000000     0.523600000000     0.0716391  
H57      H      0.343590000000     0.385550000000     0.468300000000     0.0521266  
H58      H      0.266630000000     0.406320000000     0.437200000000     0.0677396  
H59      H      0.268790000000     0.638050000000     0.500350000000     0.0289714  
H60      H      0.351090000000     0.717820000000     0.506860000000     0.0300581  
H61      H      0.210950000000     0.867380000000     0.490620000000     0.0367559  
H62      H      0.076270000000     0.789470000000     0.515970000000     0.0756846  
H63      H      0.107810000000     0.848280000000     0.461260000000     0.0568438  
H64      H      0.087110000000     0.771370000000     0.429920000000     0.0818274  
H65      H      0.771500000000     0.493260000000     0.136380000000     0.0318385  
H66      H      0.854830000000     0.487560000000     0.215780000000     0.0299511  
H67      H      0.714560000000     0.485700000000     0.366250000000     0.0385712  
H68      H      0.582080000000     0.449920000000     0.280510000000     0.074964   
H69      H      0.608500000000     0.492010000000     0.350500000000     0.0536348  
H70      H      0.584960000000     0.538470000000     0.282390000000     0.0757009  
H71      H      0.213020000000     0.483920000000     0.137260000000     0.0293663  
H72      H      0.129990000000     0.488180000000     0.217170000000     0.0256429  
H73      H      0.270700000000     0.506920000000     0.365970000000     0.035321   
H74      H      0.400550000000     0.544430000000     0.278440000000     0.0759857  
H75      H      0.376770000000     0.503050000000     0.349860000000     0.0529335  
H76      H      0.402370000000     0.455960000000     0.283050000000     0.0751247  
H77      H      0.215860000000     0.518690000000     0.859900000000     0.0298087  
H78      H      0.132720000000     0.517250000000     0.779570000000     0.0295917  
H79      H      0.269550000000     0.463350000000     0.635690000000     0.0361351  
H80      H      0.385880000000     0.406750000000     0.746940000000     0.0632593  
H81      H      0.366070000000     0.418410000000     0.664270000000     0.0538871  
H82      H      0.406800000000     0.482000000000     0.706010000000     0.0624518  
H83      H      0.854820000000     0.484110000000     0.777660000000     0.0311413  
H84      H      0.774380000000     0.479710000000     0.860440000000     0.0313483  
H85      H      0.627100000000     0.511390000000     0.720320000000     0.0340106  
H86      H      0.701310000000     0.488460000000     0.584400000000     0.0716303  
H87      H      0.648840000000     0.547220000000     0.619470000000     0.054999   
H88      H      0.728300000000     0.571360000000     0.599430000000     0.0809918  
H89      H      0.714380000000     0.858780000000     0.008360000000     0.0313006  
H90      H      0.631520000000     0.778350000000     0.012140000000     0.0307089  
H91      H      0.770800000000     0.630740000000     0.979450000000     0.0401219  
H92      H      0.906640000000     0.704450000000     0.000800000000     0.0729395  
H93      H      0.870740000000     0.653110000000     0.941390000000     0.0587906  
H94      H      0.890600000000     0.733150000000     0.918510000000     0.0813183  
H95      H      0.770690000000     0.358580000000     0.010210000000     0.0311587  
H96      H      0.853470000000     0.278570000000     0.017360000000     0.0295812  
H97      H      0.715380000000     0.130120000000     0.982780000000     0.039654   
H98      H      0.596450000000     0.230720000000     0.918200000000     0.0840101  
H99      H      0.616100000000     0.151260000000     0.942970000000     0.0564994  
H100     H      0.579040000000     0.203650000000     0.000740000000     0.0698623  
H101     H      0.213220000000     0.633980000000     0.003400000000     0.0289021  
H102     H      0.130980000000     0.714680000000     0.010990000000     0.0275786  
H103     H      0.271600000000     0.862900000000     0.988070000000     0.0375848  
H104     H      0.391870000000     0.763200000000     0.923320000000     0.0817619  
H105     H      0.371660000000     0.842000000000     0.949640000000     0.0558278  
H106     H      0.406390000000     0.787750000000     0.007190000000     0.0733463  
H107     H      0.214230000000     0.358710000000     0.007980000000     0.029045   
H108     H      0.130890000000     0.279020000000     0.006900000000     0.0253512  
H109     H      0.271220000000     0.129380000000     0.996050000000     0.0376263  
H110     H      0.403090000000     0.212900000000     0.041940000000     0.0748613  
H111     H      0.377390000000     0.145550000000     0.995600000000     0.0518963  
H112     H      0.401340000000     0.216220000000     0.953300000000     0.0654505  
H113     H      0.636320000000     0.021850000000     0.774010000000     0.0310591  
H114     H      0.716130000000     0.020770000000     0.857390000000     0.0310024  
H115     H      0.859470000000     0.964150000000     0.721050000000     0.0381986  
H116     H      0.788970000000     0.979950000000     0.582610000000     0.0660873  
H117     H      0.829970000000     0.917000000000     0.625090000000     0.0567413  
H118     H      0.747270000000     0.906040000000     0.605870000000     0.0754909  
H119     H      0.217690000000     0.005750000000     0.640690000000     0.0319288  
H120     H      0.134770000000     0.010260000000     0.720150000000     0.0320883  
H121     H      0.274710000000     0.999870000000     0.870600000000     0.0360296  
H122     H      0.409080000000     0.031730000000     0.788710000000     0.0748687  
H123     H      0.380070000000     0.983440000000     0.853720000000     0.0539494  
H124     H      0.401440000000     0.943870000000     0.780710000000     0.0783974  
H125     H      0.352110000000     0.001130000000     0.222460000000     0.0251075  
H126     H      0.272460000000     0.993800000000     0.139720000000     0.0291314  
H127     H      0.123340000000     0.996670000000     0.281320000000     0.034934   
H128     H      0.214070000000     0.058860000000     0.407410000000     0.0770781  
H129     H      0.140490000000     0.021050000000     0.385850000000     0.0531135  
H130     H      0.204210000000     0.971220000000     0.415210000000     0.0731079  
H131     H      0.711710000000     0.989480000000     0.134640000000     0.0303165  
H132     H      0.628060000000     0.984120000000     0.214700000000     0.0236785  
H133     H      0.766580000000     0.013700000000     0.363860000000     0.0340227  
H134     H      0.885530000000     0.078920000000     0.262940000000     0.0829032  
H135     H      0.865000000000     0.055700000000     0.342760000000     0.054345   
H136     H      0.902650000000     0.996970000000     0.291860000000     0.0683153  
H137     H      0.006110000000     0.136460000000     0.722700000000     0.0321084  
H138     H      0.006290000000     0.215880000000     0.639300000000     0.0305128  
H139     H      0.015800000000     0.365930000000     0.779860000000     0.039722   
H140     H      0.064490000000     0.272300000000     0.908860000000     0.0818836  
H141     H      0.032400000000     0.348120000000     0.885670000000     0.0565249  
H142     H      0.977560000000     0.287770000000     0.913160000000     0.0715138  
H143     H      0.968250000000     0.860170000000     0.720300000000     0.029517   
H144     H      0.964940000000     0.779110000000     0.637070000000     0.0291703  
H145     H      0.018650000000     0.635120000000     0.774150000000     0.0394042  
H146     H      0.007370000000     0.705290000000     0.911300000000     0.0685876  
H147     H      0.069360000000     0.663600000000     0.868050000000     0.0584261  
H148     H      0.081920000000     0.745930000000     0.887870000000     0.0816331  
H149     H      0.988110000000     0.773360000000     0.359900000000     0.0278745  
H150     H      0.988310000000     0.856730000000     0.280650000000     0.0286268  
H151     H      0.025190000000     0.718760000000     0.132260000000     0.0390617  
H152     H      0.998620000000     0.581970000000     0.204660000000     0.0717355  
H153     H      0.059430000000     0.617230000000     0.154600000000     0.0574522  
H154     H      0.080220000000     0.596730000000     0.235160000000     0.0849184  
H155     H      0.962400000000     0.271640000000     0.141490000000     0.0307841  
H156     H      0.963070000000     0.354900000000     0.221880000000     0.0313937  
H157     H      0.017590000000     0.218110000000     0.365810000000     0.0339765  
H158     H      0.076630000000     0.103860000000     0.254730000000     0.0638927  
H159     H      0.063130000000     0.121920000000     0.337510000000     0.0522478  
H160     H      0.001500000000     0.080050000000     0.294060000000     0.0657148  
N1       N      0.483250000000     0.294050000000     0.200660000000    -0.194457   
N2       N      0.485770000000     0.196150000000     0.294930000000    -0.211092   
N3       N      0.496740000000     0.698900000000     0.199740000000    -0.191696   
N4       N      0.495160000000     0.797350000000     0.293200000000    -0.209354   
N5       N      0.482120000000     0.794480000000     0.700870000000    -0.191314   
N6       N      0.477320000000     0.696870000000     0.794820000000    -0.21017    
N7       N      0.510730000000     0.198650000000     0.701750000000    -0.193122   
N8       N      0.509960000000     0.296170000000     0.796100000000    -0.213003   
N9       N      0.795520000000     0.290100000000     0.494810000000    -0.192467   
N10      N      0.701290000000     0.192310000000     0.500580000000    -0.210604   
N11      N      0.787240000000     0.694530000000     0.494020000000    -0.190865   
N12      N      0.689370000000     0.788160000000     0.487290000000    -0.209331   
N13      N      0.295530000000     0.203560000000     0.496940000000    -0.193188   
N14      N      0.201470000000     0.301570000000     0.499970000000    -0.210528   
N15      N      0.287110000000     0.798890000000     0.499940000000    -0.190685   
N16      N      0.189760000000     0.704980000000     0.491110000000    -0.20919    
N17      N      0.790910000000     0.486660000000     0.297160000000    -0.193557   
N18      N      0.692490000000     0.493610000000     0.204110000000    -0.2068     
N19      N      0.194110000000     0.498370000000     0.297790000000    -0.197088   
N20      N      0.292220000000     0.492170000000     0.204120000000    -0.208851   
N21      N      0.195290000000     0.491790000000     0.701110000000    -0.19327    
N22      N      0.292540000000     0.491000000000     0.795510000000    -0.211455   
N23      N      0.694430000000     0.493990000000     0.796370000000    -0.194177   
N24      N      0.788650000000     0.500840000000     0.699180000000    -0.206908   
N25      N      0.695090000000     0.698170000000     0.997360000000    -0.189983   
N26      N      0.792460000000     0.792490000000     0.990940000000    -0.206359   
N27      N      0.790460000000     0.198090000000     0.001660000000    -0.192771   
N28      N      0.693270000000     0.291780000000     0.991460000000    -0.209921   
N29      N      0.195290000000     0.795100000000     0.001280000000    -0.193074   
N30      N      0.291900000000     0.700570000000     0.990550000000    -0.208492   
N31      N      0.194700000000     0.197960000000     0.000760000000    -0.195673   
N32      N      0.293350000000     0.291500000000     0.002870000000    -0.210436   
N33      N      0.794190000000     0.993850000000     0.795050000000    -0.190871   
N34      N      0.700310000000     0.992380000000     0.697550000000    -0.209827   
N35      N      0.198520000000     0.005360000000     0.801540000000    -0.193947   
N36      N      0.296720000000     0.999150000000     0.708150000000    -0.206807   
N37      N      0.191570000000     0.994790000000     0.204230000000    -0.195479   
N38      N      0.285260000000     0.004960000000     0.302170000000    -0.209102   
N39      N      0.691250000000     0.996380000000     0.295610000000    -0.196749   
N40      N      0.789190000000     0.005700000000     0.202050000000    -0.207655   
N41      N      0.009400000000     0.297130000000     0.703440000000    -0.193177   
N42      N      0.009860000000     0.203830000000     0.802100000000    -0.208747   
N43      N      0.989930000000     0.700640000000     0.699760000000    -0.190582   
N44      N      0.996590000000     0.795430000000     0.796510000000    -0.207729   
N45      N      0.005020000000     0.793620000000     0.200190000000    -0.193651   
N46      N      0.007140000000     0.695470000000     0.293390000000    -0.21003    
N47      N      0.989350000000     0.292470000000     0.300250000000    -0.19677    
N48      N      0.991170000000     0.195190000000     0.205770000000    -0.212271   
O1       O      0.988680000000     0.169040000000     0.095440000000    -0.624884   
O2       O      0.999580000000     0.823020000000     0.091580000000    -0.573772   
O3       O      0.898520000000     0.002230000000     0.173190000000    -0.616394   
O4       O      0.082950000000     0.991880000000     0.174380000000    -0.622042   
O5       O      0.165450000000     0.992890000000     0.094200000000    -0.630999   
O6       O      0.817800000000     0.000850000000     0.092010000000    -0.562858   
O7       O      0.998570000000     0.903060000000     0.174250000000    -0.614893   
O8       O      0.988330000000     0.086310000000     0.174980000000    -0.632415   
O9       O      0.056330000000     0.933160000000     0.064180000000    -1.46661    
O10      O      0.928580000000     0.059860000000     0.064120000000    -1.45589    
O11      O      0.918920000000     0.922390000000     0.064550000000    -1.05956    
O12      O      0.057960000000     0.062150000000     0.067930000000    -1.64554    
O13      O      0.993120000000     0.824410000000     0.905750000000    -0.57451    
O14      O      0.002740000000     0.172420000000     0.910940000000    -0.623179   
O15      O      0.819260000000     0.902840000000     0.994260000000    -0.558291   
O16      O      0.166790000000     0.904130000000     0.006080000000    -0.614087   
O17      O      0.165450000000     0.089230000000     0.999350000000    -0.633696   
O18      O      0.819640000000     0.089510000000     0.001260000000    -0.572542   
O19      O      0.902760000000     0.995030000000     0.824440000000    -0.568441   
O20      O      0.088690000000     0.003250000000     0.827060000000    -0.569125   
O21      O      0.820280000000     0.996750000000     0.904870000000    -0.561009   
O22      O      0.168200000000     0.005290000000     0.910130000000    -0.618542   
O23      O      0.901290000000     0.823000000000     0.995650000000    -0.571646   
O24      O      0.899960000000     0.171480000000     0.007580000000    -0.611548   
O25      O      0.084810000000     0.171120000000     0.000800000000    -0.621727   
O26      O      0.085980000000     0.822540000000     0.002490000000    -0.569646   
O27      O      0.994570000000     0.905450000000     0.824360000000    -0.557004   
O28      O      0.001470000000     0.093530000000     0.827960000000    -0.566077   
O29      O      0.057190000000     0.061550000000     0.938620000000    -1.46792    
O30      O      0.930970000000     0.934550000000     0.935180000000    -1.36089    
O31      O      0.920720000000     0.063600000000     0.926540000000    -1.04787    
O32      O      0.059870000000     0.924760000000     0.926590000000    -1.05936    
O33      O      0.993310000000     0.322090000000     0.409080000000    -0.629324   
O34      O      0.997130000000     0.668710000000     0.403090000000    -0.572652   
O35      O      0.900690000000     0.487600000000     0.323570000000    -0.61055    
O36      O      0.084560000000     0.497300000000     0.324680000000    -0.630038   
O37      O      0.165050000000     0.503150000000     0.406670000000    -0.6313     
O38      O      0.820410000000     0.488120000000     0.405760000000    -0.577253   
O39      O      0.001430000000     0.586430000000     0.323490000000    -0.621214   
O40      O      0.987780000000     0.402170000000     0.326470000000    -0.624631   
O41      O      0.055080000000     0.560520000000     0.434380000000    -1.46487    
O42      O      0.931580000000     0.430330000000     0.435940000000    -1.46448    
O43      O      0.918400000000     0.567790000000     0.431700000000    -1.06134    
O44      O      0.060350000000     0.431470000000     0.433700000000    -1.63917    
O45      O      0.985650000000     0.672430000000     0.590120000000    -0.559323   
O46      O      0.005450000000     0.322970000000     0.593450000000    -0.613719   
O47      O      0.817790000000     0.585900000000     0.497650000000    -0.563964   
O48      O      0.164490000000     0.594310000000     0.491480000000    -0.609836   
O49      O      0.168600000000     0.410080000000     0.502490000000    -0.635432   
O50      O      0.821400000000     0.399950000000     0.495380000000    -0.568653   
O51      O      0.898970000000     0.499850000000     0.672830000000    -0.560717   
O52      O      0.086070000000     0.497600000000     0.673660000000    -0.566629   
O53      O      0.819420000000     0.496300000000     0.590430000000    -0.578105   
O54      O      0.166830000000     0.492340000000     0.591860000000    -0.611446   
O55      O      0.896890000000     0.669290000000     0.497080000000    -0.569237   
O56      O      0.904280000000     0.320320000000     0.495000000000    -0.606      
O57      O      0.090720000000     0.326290000000     0.503110000000    -0.618278   
O58      O      0.081400000000     0.672740000000     0.494780000000    -0.580971   
O59      O      0.990860000000     0.591580000000     0.672060000000    -0.567558   
O60      O      0.000770000000     0.405480000000     0.673610000000    -0.573214   
O61      O      0.058060000000     0.435450000000     0.563210000000    -1.46509    
O62      O      0.928330000000     0.559300000000     0.561650000000    -1.36616    
O63      O      0.921380000000     0.429960000000     0.573310000000    -1.05507    
O64      O      0.057000000000     0.572600000000     0.571720000000    -1.0617     
O65      O      0.663550000000     0.991150000000     0.404450000000    -0.633077   
O66      O      0.317760000000     0.003940000000     0.410990000000    -0.57841    
O67      O      0.495710000000     0.905940000000     0.324770000000    -0.630189   
O68      O      0.485870000000     0.087800000000     0.326700000000    -0.646902   
O69      O      0.490910000000     0.170160000000     0.405980000000    -0.618812   
O70      O      0.491640000000     0.823610000000     0.404020000000    -0.568375   
O71      O      0.395900000000     0.004850000000     0.327490000000    -0.603647   
O72      O      0.581570000000     0.992890000000     0.323740000000    -0.616617   
O73      O      0.430080000000     0.062350000000     0.437600000000    -1.45923    
O74      O      0.553730000000     0.931790000000     0.434070000000    -1.46249    
O75      O      0.416420000000     0.925390000000     0.435070000000    -1.06511    
O76      O      0.559070000000     0.061220000000     0.432300000000    -1.63553    
O77      O      0.321960000000     0.998320000000     0.597390000000    -0.564607   
O78      O      0.669520000000     0.996380000000     0.588380000000    -0.61837    
O79      O      0.396640000000     0.824200000000     0.501390000000    -0.570347   
O80      O      0.404310000000     0.173340000000     0.494870000000    -0.606981   
O81      O      0.590550000000     0.167590000000     0.501220000000    -0.621691   
O82      O      0.581050000000     0.820440000000     0.494220000000    -0.583209   
O83      O      0.491550000000     0.903670000000     0.673890000000    -0.564614   
O84      O      0.502760000000     0.089530000000     0.673950000000    -0.570436   
O85      O      0.485140000000     0.823000000000     0.591840000000    -0.567752   
O86      O      0.507930000000     0.170700000000     0.592370000000    -0.610478   
O87      O      0.317530000000     0.907600000000     0.503760000000    -0.562014   
O88      O      0.664010000000     0.898800000000     0.487440000000    -0.605951   
O89      O      0.668290000000     0.083640000000     0.500240000000    -0.629654   
O90      O      0.321450000000     0.093810000000     0.500450000000    -0.572722   
O91      O      0.405210000000     0.997360000000     0.675820000000    -0.575672   
O92      O      0.590570000000     0.996210000000     0.671520000000    -0.573601   
O93      O      0.559870000000     0.058890000000     0.561610000000    -1.45702    
O94      O      0.430070000000     0.934840000000     0.564320000000    -1.36674    
O95      O      0.558330000000     0.920970000000     0.571350000000    -1.06019    
O96      O      0.423520000000     0.064510000000     0.574850000000    -1.05163    
O97      O      0.401960000000     0.323070000000     0.001790000000    -0.641351   
O98      O      0.400340000000     0.669620000000     0.995530000000    -0.579583   
O99      O      0.318180000000     0.490170000000     0.093030000000    -0.60053    
O100     O      0.319370000000     0.497020000000     0.905600000000    -0.619614   
O101     O      0.401450000000     0.496260000000     0.825360000000    -0.634867   
O102     O      0.400450000000     0.493710000000     0.172280000000    -0.588864   
O103     O      0.318310000000     0.589910000000     0.990740000000    -0.599764   
O104     O      0.319580000000     0.402350000000     0.002970000000    -0.613095   
O105     O      0.428750000000     0.559090000000     0.934990000000    -1.45803    
O106     O      0.428720000000     0.432490000000     0.061970000000    -1.45842    
O107     O      0.426540000000     0.569700000000     0.071830000000    -1.05555    
O108     O      0.426950000000     0.429980000000     0.932740000000    -1.6339     
O109     O      0.585510000000     0.670870000000     0.000110000000    -0.558828   
O110     O      0.584450000000     0.321950000000     0.993010000000    -0.624382   
O111     O      0.495230000000     0.589060000000     0.173140000000    -0.568144   
O112     O      0.482940000000     0.587720000000     0.824420000000    -0.624196   
O113     O      0.500990000000     0.405050000000     0.825570000000    -0.640124   
O114     O      0.487090000000     0.403670000000     0.173330000000    -0.572244   
O115     O      0.666340000000     0.496660000000     0.093380000000    -0.562468   
O116     O      0.667370000000     0.492010000000     0.906110000000    -0.570472   
O117     O      0.584020000000     0.496660000000     0.172760000000    -0.580767   
O118     O      0.585700000000     0.492930000000     0.825110000000    -0.617017   
O119     O      0.495500000000     0.669660000000     0.091010000000    -0.570902   
O120     O      0.485060000000     0.322820000000     0.091540000000    -0.614422   
O121     O      0.500110000000     0.323390000000     0.906010000000    -0.625458   
O122     O      0.486460000000     0.669400000000     0.904600000000    -0.572558   
O123     O      0.666520000000     0.589180000000     0.999660000000    -0.566495   
O124     O      0.666240000000     0.401900000000     0.994690000000    -0.568464   
O125     O      0.556360000000     0.432750000000     0.935270000000    -1.47291    
O126     O      0.556210000000     0.559510000000     0.062150000000    -1.36548    
O127     O      0.565880000000     0.430380000000     0.072520000000    -1.06659    
O128     O      0.566230000000     0.569540000000     0.933000000000    -1.06527    


