data_structure

_audit_creation_method RASPA-1.0
_audit_creation_date 2023-5-19
_audit_author_name 'Poobodin Mano'

_cell_length_a    20.5656
_cell_length_b    20.5256
_cell_length_c    20.5519
_cell_angle_alpha 90
_cell_angle_beta  90
_cell_angle_gamma 90
_cell_volume      8675.39

_symmetry_cell_setting          triclinic
_symmetry_space_group_name_Hall 'P 1'
_symmetry_space_group_name_H-M  'P 1'
_symmetry_Int_Tables_number     1

_symmetry_equiv_pos_as_xyz 'x,y,z'

loop_
_atom_site_label
_atom_site_type_symbol
_atom_site_fract_x
_atom_site_fract_y
_atom_site_fract_z
_atom_site_charge
C1       C      0.001810000000     0.159000000000     0.150090000000     0.508329   
C2       C      0.006160000000     0.846460000000     0.163250000000     0.507336   
C3       C      0.845780000000     0.013690000000     0.164890000000     0.504222   
C4       C      0.157050000000     0.005860000000     0.149360000000     0.496089   
C5       C      0.975760000000     0.836130000000     0.851440000000     0.491389   
C6       C      0.987750000000     0.147990000000     0.840370000000     0.504769   
C7       C      0.841820000000     0.837330000000     0.018670000000     0.498162   
C8       C      0.155310000000     0.843450000000     0.005420000000     0.504132   
C9       C      0.146440000000     0.153070000000     0.981330000000     0.504637   
C10      C      0.838400000000     0.152060000000     0.017320000000     0.507927   
C11      C      0.829950000000     0.987250000000     0.854500000000     0.5004     
C12      C      0.143770000000     0.996690000000     0.838170000000     0.506572   
C13      C      0.989680000000     0.344530000000     0.342290000000     0.503639   
C14      C      0.019620000000     0.654420000000     0.346270000000     0.515888   
C15      C      0.845430000000     0.495530000000     0.338340000000     0.500586   
C16      C      0.158700000000     0.501570000000     0.350720000000     0.506566   
C17      C      0.991540000000     0.652990000000     0.656570000000     0.49757    
C18      C      0.007120000000     0.338000000000     0.653990000000     0.5095     
C19      C      0.840380000000     0.650610000000     0.512290000000     0.498049   
C20      C      0.154000000000     0.652440000000     0.510140000000     0.506355   
C21      C      0.152580000000     0.341420000000     0.490620000000     0.500078   
C22      C      0.844110000000     0.338330000000     0.481060000000     0.513289   
C23      C      0.837290000000     0.507010000000     0.650110000000     0.499236   
C24      C      0.148490000000     0.481850000000     0.660000000000     0.509059   
C25      C      0.658800000000     0.984330000000     0.349750000000     0.506126   
C26      C      0.346200000000     0.005850000000     0.343480000000     0.502984   
C27      C      0.498950000000     0.836960000000     0.350680000000     0.501706   
C28      C      0.505100000000     0.148810000000     0.340710000000     0.500655   
C29      C      0.340550000000     0.008120000000     0.654180000000     0.494367   
C30      C      0.654330000000     0.016800000000     0.659660000000     0.507867   
C31      C      0.348010000000     0.840140000000     0.507860000000     0.498958   
C32      C      0.345630000000     0.156400000000     0.490360000000     0.502196   
C33      C      0.654990000000     0.155330000000     0.507290000000     0.507091   
C34      C      0.659240000000     0.844370000000     0.500230000000     0.501109   
C35      C      0.484210000000     0.849880000000     0.663590000000     0.496206   
C36      C      0.509780000000     0.162340000000     0.651630000000     0.512859   
C37      C      0.339860000000     0.345440000000     0.986570000000     0.507999   
C38      C      0.649630000000     0.334330000000     0.989240000000     0.505851   
C39      C      0.476590000000     0.345060000000     0.838200000000     0.507278   
C40      C      0.496180000000     0.335390000000     0.147610000000     0.504946   
C41      C      0.657420000000     0.649380000000     0.990770000000     0.492822   
C42      C      0.345520000000     0.654740000000     0.022290000000     0.500556   
C43      C      0.650270000000     0.492840000000     0.837100000000     0.501893   
C44      C      0.658140000000     0.472110000000     0.149500000000     0.50347    
C45      C      0.347720000000     0.493250000000     0.156980000000     0.496958   
C46      C      0.339550000000     0.505680000000     0.843300000000     0.510179   
C47      C      0.502880000000     0.656790000000     0.844860000000     0.489227   
C48      C      0.505330000000     0.647860000000     0.158970000000     0.50002    
C49      C      0.521680000000     0.263600000000     0.306770000000    -0.00368635 
C50      C      0.519370000000     0.174520000000     0.223590000000    -0.0266573  
C51      C      0.478990000000     0.305480000000     0.262700000000    -0.00260233 
C52      C      0.475440000000     0.216560000000     0.179930000000     0.0719706  
C53      C      0.481760000000     0.193440000000     0.108850000000    -0.162665   
C54      C      0.529040000000     0.677620000000     0.274070000000    -0.00539245 
C55      C      0.506910000000     0.764170000000     0.190120000000    -0.0280941  
C56      C      0.492630000000     0.719120000000     0.325040000000    -0.00372847 
C57      C      0.462370000000     0.798230000000     0.238780000000     0.0743712  
C58      C      0.447290000000     0.868330000000     0.217260000000    -0.163166   
C59      C      0.523060000000     0.772470000000     0.814580000000    -0.00775278 
C60      C      0.493150000000     0.689690000000     0.728740000000    -0.0344527  
C61      C      0.478430000000     0.822310000000     0.780910000000    -0.00258734 
C62      C      0.443470000000     0.738600000000     0.700990000000     0.0842684  
C63      C      0.417940000000     0.721830000000     0.631000000000    -0.251021   
C64      C      0.464000000000     0.229480000000     0.804210000000    -0.00263106 
C65      C      0.465410000000     0.317930000000     0.720850000000    -0.0289962  
C66      C      0.518270000000     0.194130000000     0.767510000000    -0.00301355 
C67      C      0.520340000000     0.282570000000     0.684330000000     0.0756588  
C68      C      0.521530000000     0.304640000000     0.612820000000    -0.166196   
C69      C      0.685940000000     0.272600000000     0.509650000000    -0.00423018 
C70      C      0.770900000000     0.185530000000     0.520140000000    -0.0297658  
C71      C      0.729240000000     0.308240000000     0.460390000000    -0.00462182 
C72      C      0.810780000000     0.218990000000     0.466870000000     0.0775997  
C73      C      0.881760000000     0.195490000000     0.469820000000    -0.165997   
C74      C      0.691650000000     0.731340000000     0.473130000000    -0.0070567  
C75      C      0.775420000000     0.813040000000     0.511380000000    -0.0333888  
C76      C      0.723640000000     0.679350000000     0.515920000000    -0.00131655 
C77      C      0.803150000000     0.760430000000     0.557340000000     0.08458    
C78      C      0.872960000000     0.775010000000     0.583890000000    -0.253136   
C79      C      0.232780000000     0.188280000000     0.516020000000    -0.00650339 
C80      C      0.315260000000     0.273050000000     0.481450000000    -0.0309083  
C81      C      0.180400000000     0.225280000000     0.478510000000    -0.00123031 
C82      C      0.261470000000     0.306920000000     0.441370000000     0.078481   
C83      C      0.278720000000     0.378890000000     0.422360000000    -0.238074   
C84      C      0.184640000000     0.767880000000     0.528520000000    -0.00287238 
C85      C      0.266960000000     0.680110000000     0.541390000000    -0.0265042  
C86      C      0.233880000000     0.809420000000     0.491470000000    -0.00527415 
C87      C      0.317500000000     0.719870000000     0.503270000000     0.0763366  
C88      C      0.386450000000     0.697010000000     0.524810000000    -0.183417   
C89      C      0.729520000000     0.503710000000     0.305020000000    -0.00551135 
C90      C      0.817700000000     0.495610000000     0.220590000000    -0.0283738  
C91      C      0.688120000000     0.456020000000     0.265310000000    -0.00198846 
C92      C      0.775680000000     0.446300000000     0.183080000000     0.0751241  
C93      C      0.797290000000     0.442080000000     0.111730000000    -0.170598   
C94      C      0.233780000000     0.472650000000     0.189900000000    -0.00421848 
C95      C      0.321730000000     0.469530000000     0.272480000000    -0.0283225  
C96      C      0.190650000000     0.511130000000     0.236180000000    -0.00394739 
C97      C      0.279200000000     0.506910000000     0.321840000000     0.0750492  
C98      C      0.300710000000     0.486030000000     0.391440000000    -0.180541   
C99      C      0.177910000000     0.478360000000     0.777530000000    -0.00456704 
C100     C      0.263110000000     0.463400000000     0.691700000000    -0.026956   
C101     C      0.224010000000     0.524180000000     0.814510000000    -0.00424097 
C102     C      0.304490000000     0.515960000000     0.724260000000     0.0759997  
C103     C      0.375080000000     0.511160000000     0.699760000000    -0.166311   
C104     C      0.803890000000     0.531910000000     0.763430000000    -0.0041932  
C105     C      0.720080000000     0.519620000000     0.676280000000    -0.0282633  
C106     C      0.766060000000     0.484800000000     0.806500000000    -0.00322174 
C107     C      0.682770000000     0.470970000000     0.718950000000     0.0748576  
C108     C      0.611180000000     0.467170000000     0.697240000000    -0.166017   
C109     C      0.773850000000     0.681210000000     0.978030000000    -0.00645474 
C110     C      0.686960000000     0.766480000000     0.987790000000    -0.0292506  
C111     C      0.815420000000     0.719510000000     0.027220000000    -0.00336402 
C112     C      0.725850000000     0.799250000000     0.042120000000     0.0764232  
C113     C      0.702320000000     0.869370000000     0.053830000000    -0.167108   
C114     C      0.724050000000     0.184540000000     0.041410000000    -0.00642943 
C115     C      0.808100000000     0.268690000000     0.012980000000    -0.0262313  
C116     C      0.676590000000     0.216540000000     0.993080000000    -0.00206223 
C117     C      0.763040000000     0.294060000000     0.959550000000     0.0748256  
C118     C      0.783240000000     0.361840000000     0.935030000000    -0.16917    
C119     C      0.231510000000     0.687030000000     0.048290000000    -0.00358597 
C120     C      0.317620000000     0.771520000000     0.038400000000    -0.0280843  
C121     C      0.186560000000     0.727140000000     0.004130000000    -0.00483348 
C122     C      0.274730000000     0.810690000000     0.991140000000     0.073297   
C123     C      0.297050000000     0.882400000000     0.991450000000    -0.161901   
C124     C      0.260610000000     0.183540000000     0.961160000000    -0.00524941 
C125     C      0.175020000000     0.268940000000     0.990170000000    -0.0303608  
C126     C      0.308400000000     0.230260000000     0.993280000000     0.000160676
C127     C      0.224960000000     0.318220000000     0.964110000000     0.0830747  
C128     C      0.218430000000     0.327040000000     0.890210000000    -0.180728   
C129     C      0.769920000000     0.017020000000     0.694310000000    -0.000872793
C130     C      0.682460000000     0.044440000000     0.773820000000    -0.0262489  
C131     C      0.796250000000     0.965810000000     0.741280000000    -0.00438186 
C132     C      0.709730000000     0.994300000000     0.822510000000     0.0717028  
C133     C      0.690790000000     0.015770000000     0.891850000000    -0.162905   
C134     C      0.305760000000     0.022000000000     0.768910000000    -0.00429851 
C135     C      0.224610000000     0.030520000000     0.679210000000    -0.0262774  
C136     C      0.258340000000     0.979910000000     0.807490000000    -0.00155937 
C137     C      0.175500000000     0.989120000000     0.718070000000     0.0711074  
C138     C      0.106140000000     0.008510000000     0.696710000000    -0.163756   
C139     C      0.273810000000     0.021450000000     0.176520000000    -0.00151498 
C140     C      0.188590000000     0.046440000000     0.257740000000    -0.0256029  
C141     C      0.315660000000     0.989400000000     0.229190000000    -0.0059491  
C142     C      0.227600000000     0.014510000000     0.313040000000     0.0723581  
C143     C      0.212150000000     0.052980000000     0.376220000000    -0.159931   
C144     C      0.815860000000     0.026920000000     0.282120000000    -0.00452719 
C145     C      0.729870000000     0.024050000000     0.196260000000    -0.0271077  
C146     C      0.776450000000     0.977020000000     0.322180000000    -0.00643152 
C147     C      0.695940000000     0.968280000000     0.232060000000     0.0730382  
C148     C      0.625570000000     0.960460000000     0.208000000000    -0.164753   
C149     C      0.976890000000     0.178030000000     0.723240000000    -0.00721983 
C150     C      0.976090000000     0.263940000000     0.809740000000    -0.0275841  
C151     C      0.022110000000     0.221200000000     0.681880000000    -0.00176133 
C152     C      0.026800000000     0.302580000000     0.771660000000     0.0772006  
C153     C      0.028260000000     0.373520000000     0.795460000000    -0.168961   
C154     C      0.962530000000     0.719150000000     0.821230000000    -0.00685984 
C155     C      0.945080000000     0.805940000000     0.738780000000    -0.0296348  
C156     C      0.004940000000     0.681550000000     0.772470000000    -0.00188439 
C157     C      0.992040000000     0.772630000000     0.691360000000     0.0774106  
C158     C      0.977360000000     0.797390000000     0.621460000000    -0.188578   
C159     C      0.002330000000     0.816330000000     0.280570000000    -0.00235692 
C160     C      0.993830000000     0.730910000000     0.193380000000    -0.0295328  
C161     C      0.045450000000     0.769680000000     0.320220000000    -0.00448309 
C162     C      0.043480000000     0.689480000000     0.229520000000     0.0785134  
C163     C      0.040470000000     0.618910000000     0.204470000000    -0.164818   
C164     C      0.983100000000     0.228280000000     0.310010000000    -0.0061433  
C165     C      0.969240000000     0.316430000000     0.226650000000    -0.0289596  
C166     C      0.027170000000     0.191430000000     0.262950000000    -0.00184894 
C167     C      0.014900000000     0.279490000000     0.180340000000     0.0741558  
C168     C      0.001760000000     0.301340000000     0.109780000000    -0.162451   
Eu1      Eu     0.999170000000     0.000080000000     0.117190000000     3.47572    
Eu2      Eu     0.996330000000     0.880580000000     0.005760000000     2.99998    
Eu3      Eu     0.991990000000     0.111340000000     0.996700000000     3.52191    
Eu4      Eu     0.878740000000     0.995530000000     0.008150000000     3.07958    
Eu5      Eu     0.109240000000     0.996580000000     0.994910000000     3.48419    
Eu6      Eu     0.988350000000     0.992910000000     0.885910000000     3.01584    
Eu7      Eu     0.999390000000     0.500120000000     0.384650000000     3.47931    
Eu8      Eu     0.997830000000     0.612800000000     0.501230000000     3.04613    
Eu9      Eu     0.996470000000     0.381580000000     0.499310000000     3.47905    
Eu10     Eu     0.881580000000     0.496430000000     0.496020000000     3.06589    
Eu11     Eu     0.112120000000     0.496980000000     0.504150000000     3.53905    
Eu12     Eu     0.994160000000     0.495000000000     0.615960000000     3.06419    
Eu13     Eu     0.501360000000     0.994270000000     0.386770000000     3.44171    
Eu14     Eu     0.385130000000     0.999420000000     0.500200000000     3.05049    
Eu15     Eu     0.615970000000     0.998010000000     0.505150000000     3.48056    
Eu16     Eu     0.501480000000     0.883430000000     0.505990000000     3.02049    
Eu17     Eu     0.500150000000     0.114530000000     0.498370000000     3.52733    
Eu18     Eu     0.498730000000     0.003830000000     0.618200000000     3.0754     
Eu19     Eu     0.496140000000     0.381400000000     0.992830000000     3.52842    
Eu20     Eu     0.614600000000     0.492800000000     0.994390000000     3.00174    
Eu21     Eu     0.383050000000     0.500860000000     0.999170000000     3.47647    
Eu22     Eu     0.495380000000     0.500130000000     0.881950000000     3.07127    
Eu23     Eu     0.502820000000     0.493330000000     0.112590000000     3.46073    
Eu24     Eu     0.501410000000     0.612430000000     0.001230000000     3.03122    
H1       H      0.939680000000     0.940570000000     0.114600000000    -0.175447   
H2       H      0.092570000000     0.095580000000     0.085990000000     0.417045   
H3       H      0.928950000000     0.101600000000     0.941720000000    -0.176903   
H4       H      0.098710000000     0.935370000000     0.938680000000    -0.193747   
H5       H      0.940790000000     0.560650000000     0.391270000000    -0.175034   
H6       H      0.091030000000     0.404660000000     0.403970000000     0.416611   
H7       H      0.935280000000     0.387680000000     0.557550000000    -0.171062   
H8       H      0.102810000000     0.553960000000     0.564880000000    -0.190607   
H9       H      0.441160000000     0.936830000000     0.396170000000    -0.180494   
H10      H      0.598290000000     0.089090000000     0.406480000000     0.410865   
H11      H      0.607190000000     0.941110000000     0.566820000000    -0.179916   
H12      H      0.440810000000     0.109300000000     0.557500000000    -0.183498   
H13      H      0.553010000000     0.389050000000     0.931450000000    -0.182046   
H14      H      0.403430000000     0.401150000000     0.089050000000     0.413772   
H15      H      0.391210000000     0.563090000000     0.943110000000    -0.178333   
H16      H      0.564370000000     0.550480000000     0.105100000000    -0.176126   
H17      H      0.531050000000     0.203750000000     0.089330000000     0.0687635  
H18      H      0.570880000000     0.182140000000     0.208820000000     0.03353    
H19      H      0.573400000000     0.276450000000     0.297480000000     0.029059   
H20      H      0.490250000000     0.357340000000     0.273160000000     0.0350373  
H21      H      0.507690000000     0.122230000000     0.215700000000     0.0397166  
H22      H      0.473910000000     0.139940000000     0.105930000000     0.0471895  
H23      H      0.424510000000     0.205610000000     0.194810000000     0.0133373  
H24      H      0.510690000000     0.276120000000     0.358200000000     0.0338039  
H25      H      0.427340000000     0.297370000000     0.276610000000     0.0261084  
H26      H      0.443340000000     0.215600000000     0.078030000000     0.0640515  
H27      H      0.492160000000     0.897570000000     0.211140000000     0.0610242  
H28      H      0.556420000000     0.785840000000     0.193330000000     0.0389988  
H29      H      0.581980000000     0.687000000000     0.279790000000     0.031891   
H30      H      0.517250000000     0.712460000000     0.372740000000     0.0342222  
H31      H      0.488180000000     0.772700000000     0.140070000000     0.0434194  
H32      H      0.421830000000     0.867680000000     0.169550000000     0.0483937  
H33      H      0.414810000000     0.772240000000     0.236220000000     0.0185088  
H34      H      0.520850000000     0.625280000000     0.285170000000     0.0359363  
H35      H      0.442400000000     0.699620000000     0.329920000000     0.0326775  
H36      H      0.413740000000     0.891510000000     0.252480000000     0.0698772  
H37      H      0.467790000000     0.717050000000     0.610100000000     0.0835997  
H38      H      0.539700000000     0.694760000000     0.701660000000     0.040151   
H39      H      0.573550000000     0.781070000000     0.797210000000     0.0339243  
H40      H      0.499390000000     0.871660000000     0.788260000000     0.0354766  
H41      H      0.475130000000     0.639410000000     0.721130000000     0.0397916  
H42      H      0.392630000000     0.675810000000     0.645320000000     0.06436    
H43      H      0.400070000000     0.733800000000     0.733480000000     0.0140707  
H44      H      0.522710000000     0.781930000000     0.867800000000     0.0370512  
H45      H      0.430290000000     0.821260000000     0.805570000000     0.0313677  
H46      H      0.386630000000     0.766010000000     0.626810000000     0.0928334  
H47      H      0.475260000000     0.292560000000     0.587610000000     0.0661321  
H48      H      0.417970000000     0.302120000000     0.700120000000     0.0377135  
H49      H      0.416540000000     0.210310000000     0.786660000000     0.0335336  
H50      H      0.514270000000     0.141160000000     0.777590000000     0.0370699  
H51      H      0.469690000000     0.371290000000     0.713120000000     0.0380321  
H52      H      0.527790000000     0.358350000000     0.610300000000     0.0467847  
H53      H      0.566720000000     0.300240000000     0.706090000000     0.0152405  
H54      H      0.467830000000     0.217990000000     0.856880000000     0.0372716  
H55      H      0.565670000000     0.210510000000     0.787870000000     0.0322503  
H56      H      0.563860000000     0.283120000000     0.587410000000     0.0759058  
H57      H      0.904220000000     0.205990000000     0.517880000000     0.0654681  
H58      H      0.787530000000     0.203850000000     0.568320000000     0.0405384  
H59      H      0.694800000000     0.293920000000     0.558600000000     0.0322014  
H60      H      0.719650000000     0.361350000000     0.464020000000     0.036391   
H61      H      0.779850000000     0.132140000000     0.519120000000     0.0436481  
H62      H      0.883590000000     0.141880000000     0.462470000000     0.0486271  
H63      H      0.791320000000     0.200950000000     0.419570000000     0.0119069  
H64      H      0.634450000000     0.282000000000     0.496460000000     0.0317185  
H65      H      0.714190000000     0.292820000000     0.410730000000     0.0281657  
H66      H      0.910210000000     0.217330000000     0.429710000000     0.0762554  
H67      H      0.894960000000     0.781570000000     0.534700000000     0.0843286  
H68      H      0.803710000000     0.812910000000     0.465250000000     0.041077   
H69      H      0.711460000000     0.726190000000     0.423050000000     0.0342645  
H70      H      0.716210000000     0.631220000000     0.492320000000     0.0369229  
H71      H      0.780940000000     0.861730000000     0.534460000000     0.0419493  
H72      H      0.858520000000     0.820140000000     0.610730000000     0.0643742  
H73      H      0.770600000000     0.762090000000     0.600960000000     0.0126065  
H74      H      0.638600000000     0.721490000000     0.470300000000     0.0362444  
H75      H      0.698010000000     0.678270000000     0.563590000000     0.0313194  
H76      H      0.876090000000     0.729320000000     0.613140000000     0.0932195  
H77      H      0.285270000000     0.396640000000     0.473250000000     0.0804266  
H78      H      0.319360000000     0.297410000000     0.529610000000     0.0382206  
H79      H      0.229850000000     0.202920000000     0.568030000000     0.0340467  
H80      H      0.133160000000     0.216580000000     0.503310000000     0.0348296  
H81      H      0.362630000000     0.278560000000     0.455910000000     0.041454   
H82      H      0.323990000000     0.366380000000     0.395000000000     0.0606221  
H83      H      0.260350000000     0.279320000000     0.394420000000     0.00841509 
H84      H      0.221300000000     0.135440000000     0.513610000000     0.0349591  
H85      H      0.176880000000     0.204320000000     0.428700000000     0.0240695  
H86      H      0.233130000000     0.385140000000     0.393560000000     0.0705855  
H87      H      0.401720000000     0.710230000000     0.577880000000     0.110128   
H88      H      0.272920000000     0.690700000000     0.594170000000     0.0358689  
H89      H      0.186610000000     0.781540000000     0.580860000000     0.0326316  
H90      H      0.222680000000     0.861240000000     0.502330000000     0.0362788  
H91      H      0.276570000000     0.627270000000     0.534480000000     0.0402847  
H92      H      0.388570000000     0.642900000000     0.521880000000     0.049471   
H93      H      0.312290000000     0.705030000000     0.451420000000     0.0187343  
H94      H      0.135160000000     0.779620000000     0.510180000000     0.0347282  
H95      H      0.225720000000     0.802090000000     0.438470000000     0.0341653  
H96      H      0.423910000000     0.712360000000     0.489050000000     0.0746102  
H97      H      0.794040000000     0.490170000000     0.087120000000     0.0662822  
H98      H      0.809090000000     0.545060000000     0.200150000000     0.0381335  
H99      H      0.714540000000     0.554110000000     0.291980000000     0.0329946  
H100     H      0.636110000000     0.466520000000     0.275300000000     0.0368037  
H101     H      0.869900000000     0.483580000000     0.213240000000     0.0420872  
H102     H      0.848780000000     0.425810000000     0.109150000000     0.0490908  
H103     H      0.786970000000     0.397710000000     0.204510000000     0.0168697  
H104     H      0.718340000000     0.496500000000     0.357410000000     0.0368631  
H105     H      0.698050000000     0.405880000000     0.283350000000     0.0320273  
H106     H      0.767890000000     0.404880000000     0.086080000000     0.0744954  
H107     H      0.288230000000     0.432510000000     0.406120000000     0.104192   
H108     H      0.315590000000     0.416310000000     0.280830000000     0.0288435  
H109     H      0.222820000000     0.419910000000     0.195950000000     0.0225735  
H110     H      0.139910000000     0.496380000000     0.225150000000     0.0299556  
H111     H      0.373680000000     0.481330000000     0.281710000000     0.0415025  
H112     H      0.354600000000     0.489930000000     0.394740000000     0.0495617  
H113     H      0.292450000000     0.559250000000     0.316730000000     0.0196911  
H114     H      0.220930000000     0.486420000000     0.139210000000     0.0335712  
H115     H      0.195680000000     0.563790000000     0.224430000000     0.0328151  
H116     H      0.284150000000     0.521530000000     0.428640000000     0.0735156  
H117     H      0.397110000000     0.463510000000     0.712600000000     0.0702295  
H118     H      0.277710000000     0.415050000000     0.711410000000     0.0389377  
H119     H      0.182810000000     0.428820000000     0.798420000000     0.0270608  
H120     H      0.214850000000     0.518390000000     0.867450000000     0.0356106  
H121     H      0.272550000000     0.462560000000     0.638460000000     0.0428697  
H122     H      0.376170000000     0.515590000000     0.645870000000     0.0461817  
H123     H      0.285950000000     0.563710000000     0.706290000000     0.0155293  
H124     H      0.127350000000     0.495240000000     0.786180000000     0.0324304  
H125     H      0.210790000000     0.575130000000     0.801650000000     0.031684   
H126     H      0.404430000000     0.552250000000     0.718610000000     0.0688307  
H127     H      0.586310000000     0.514920000000     0.702810000000     0.0673895  
H128     H      0.700430000000     0.569340000000     0.685230000000     0.0399185  
H129     H      0.787950000000     0.582330000000     0.775230000000     0.0333832  
H130     H      0.775800000000     0.498110000000     0.857960000000     0.0344344  
H131     H      0.712050000000     0.507910000000     0.624100000000     0.0443055  
H132     H      0.608690000000     0.453660000000     0.644940000000     0.0483654  
H133     H      0.703870000000     0.422140000000     0.708200000000     0.0167469  
H134     H      0.856470000000     0.528270000000     0.775290000000     0.0358849  
H135     H      0.785810000000     0.435010000000     0.798360000000     0.0291833  
H136     H      0.585190000000     0.428150000000     0.724130000000     0.0712794  
H137     H      0.704540000000     0.898650000000     0.008610000000     0.0646582  
H138     H      0.700510000000     0.789290000000     0.940560000000     0.040453   
H139     H      0.789170000000     0.695830000000     0.928230000000     0.0336085  
H140     H      0.867440000000     0.711730000000     0.015020000000     0.0377279  
H141     H      0.634210000000     0.775270000000     0.995420000000     0.0446571  
H142     H      0.650680000000     0.868490000000     0.069660000000     0.0489516  
H143     H      0.713840000000     0.772360000000     0.087700000000     0.0184102  
H144     H      0.784260000000     0.628380000000     0.983490000000     0.0346958  
H145     H      0.807170000000     0.698120000000     0.076260000000     0.0318625  
H146     H      0.730580000000     0.892660000000     0.093560000000     0.0713601  
H147     H      0.787650000000     0.397620000000     0.975120000000     0.064347   
H148     H      0.799230000000     0.296620000000     0.058430000000     0.0366281  
H149     H      0.713840000000     0.204870000000     0.090520000000     0.0326011  
H150     H      0.626450000000     0.210750000000     0.012230000000     0.0339508  
H151     H      0.859550000000     0.276600000000     0.998440000000     0.0399144  
H152     H      0.831610000000     0.358710000000     0.911140000000     0.0505136  
H153     H      0.770610000000     0.261250000000     0.916950000000     0.0167853  
H154     H      0.714150000000     0.131380000000     0.043610000000     0.0350673  
H155     H      0.679380000000     0.189430000000     0.946290000000     0.0284466  
H156     H      0.748210000000     0.379030000000     0.897790000000     0.0757228  
H157     H      0.286610000000     0.905960000000     0.038990000000     0.0700682  
H158     H      0.308520000000     0.789280000000     0.088760000000     0.0388651  
H159     H      0.220590000000     0.700160000000     0.099650000000     0.033822   
H160     H      0.135740000000     0.718170000000     0.020130000000     0.0365406  
H161     H      0.369810000000     0.780220000000     0.027300000000     0.0419666  
H162     H      0.350390000000     0.885300000000     0.983240000000     0.0477067  
H163     H      0.285810000000     0.791820000000     0.941550000000     0.017202   
H164     H      0.219900000000     0.634540000000     0.042160000000     0.0377171  
H165     H      0.191190000000     0.708170000000     0.953650000000     0.0324503  
H166     H      0.274640000000     0.909620000000     0.950560000000     0.0666085  
H167     H      0.228420000000     0.281040000000     0.863770000000     0.0715653  
H168     H      0.126050000000     0.280990000000     0.970480000000     0.0402621  
H169     H      0.267600000000     0.184700000000     0.907590000000     0.0334457  
H170     H      0.357990000000     0.217860000000     0.975620000000     0.0341477  
H171     H      0.171490000000     0.274900000000     0.043850000000     0.0288013  
H172     H      0.168440000000     0.343370000000     0.877840000000     0.0580703  
H173     H      0.212730000000     0.366050000000     0.986520000000     0.013134   
H174     H      0.273140000000     0.133370000000     0.977180000000     0.0343769  
H175     H      0.308020000000     0.221820000000     0.046740000000     0.0224611  
H176     H      0.253250000000     0.364620000000     0.872950000000     0.07582    
H177     H      0.716940000000     0.060910000000     0.906300000000     0.0691759  
H178     H      0.704590000000     0.092730000000     0.784680000000     0.0388238  
H179     H      0.795910000000     0.063690000000     0.703260000000     0.0345044  
H180     H      0.848980000000     0.959020000000     0.731840000000     0.0364384  
H181     H      0.629060000000     0.049680000000     0.780440000000     0.0436853  
H182     H      0.637800000000     0.026130000000     0.894390000000     0.0485585  
H183     H      0.683960000000     0.947600000000     0.812800000000     0.0170224  
H184     H      0.780420000000     0.001300000000     0.643650000000     0.0348858  
H185     H      0.772320000000     0.918580000000     0.729790000000     0.0309434  
H186     H      0.699600000000     0.975950000000     0.927070000000     0.0640701  
H187     H      0.092200000000     0.056470000000     0.717540000000     0.0706431  
H188     H      0.214700000000     0.082930000000     0.689050000000     0.0380108  
H189     H      0.299360000000     0.073630000000     0.784100000000     0.0339325  
H190     H      0.268960000000     0.987730000000     0.859840000000     0.0348458  
H191     H      0.216620000000     0.022500000000     0.626330000000     0.0430046  
H192     H      0.103200000000     0.012550000000     0.642860000000     0.048851   
H193     H      0.183040000000     0.937650000000     0.702740000000     0.0176893  
H194     H      0.356160000000     0.007010000000     0.781460000000     0.0362879  
H195     H      0.269200000000     0.927910000000     0.796750000000     0.0311716  
H196     H      0.070500000000     0.970140000000     0.710040000000     0.067513   
H197     H      0.244290000000     0.096250000000     0.380810000000     0.0713715  
H198     H      0.200500000000     0.099370000000     0.256260000000     0.0296335  
H199     H      0.288540000000     0.073410000000     0.172000000000     0.0261383  
H200     H      0.367340000000     0.999850000000     0.217360000000     0.0331306  
H201     H      0.135910000000     0.042640000000     0.269230000000     0.0396425  
H202     H      0.161020000000     0.070600000000     0.376910000000     0.0475244  
H203     H      0.208360000000     0.964190000000     0.319160000000     0.018646   
H204     H      0.283820000000     0.997110000000     0.129240000000     0.0305606  
H205     H      0.308750000000     0.935810000000     0.225330000000     0.0294262  
H206     H      0.216060000000     0.021320000000     0.419820000000     0.0663625  
H207     H      0.596940000000     0.005850000000     0.214950000000     0.0620794  
H208     H      0.709060000000     0.071020000000     0.213580000000     0.0343985  
H209     H      0.802750000000     0.076520000000     0.299500000000     0.028837   
H210     H      0.784470000000     0.987210000000     0.374630000000     0.0359398  
H211     H      0.720060000000     0.020890000000     0.143180000000     0.0420791  
H212     H      0.625450000000     0.949770000000     0.155060000000     0.0460246  
H213     H      0.721350000000     0.922700000000     0.217150000000     0.0170834  
H214     H      0.868520000000     0.019580000000     0.291710000000     0.0355925  
H215     H      0.796890000000     0.927840000000     0.312270000000     0.0333662  
H216     H      0.602390000000     0.918150000000     0.232300000000     0.0730027  
H217     H      0.980070000000     0.397420000000     0.790110000000     0.0659114  
H218     H      0.926820000000     0.281220000000     0.795450000000     0.0376682  
H219     H      0.925990000000     0.186940000000     0.707260000000     0.0320846  
H220     H      0.010850000000     0.212270000000     0.629790000000     0.0343046  
H221     H      0.981800000000     0.273590000000     0.862640000000     0.0423292  
H222     H      0.041390000000     0.374960000000     0.847910000000     0.048811   
H223     H      0.075050000000     0.281710000000     0.785000000000     0.0167873  
H224     H      0.988290000000     0.126070000000     0.713310000000     0.0334263  
H225     H      0.073000000000     0.204870000000     0.690290000000     0.0306413  
H226     H      0.066560000000     0.400660000000     0.769380000000     0.0772496  
H227     H      0.925160000000     0.785750000000     0.602830000000     0.111733   
H228     H      0.895070000000     0.787630000000     0.729120000000     0.0366635  
H229     H      0.911830000000     0.700720000000     0.817200000000     0.0323281  
H230     H      0.997750000000     0.628740000000     0.781740000000     0.0355171  
H231     H      0.944350000000     0.859350000000     0.729930000000     0.0430931  
H232     H      0.981380000000     0.851470000000     0.621260000000     0.0515166  
H233     H      0.041540000000     0.790990000000     0.703490000000     0.0191169  
H234     H      0.979950000000     0.708780000000     0.871350000000     0.0360204  
H235     H      0.056720000000     0.692550000000     0.783590000000     0.0330242  
H236     H      0.015660000000     0.782020000000     0.586620000000     0.0762804  
H237     H      0.991280000000     0.597420000000     0.210990000000     0.063829   
H238     H      0.944110000000     0.715950000000     0.208740000000     0.0399929  
H239     H      0.951500000000     0.811550000000     0.298380000000     0.0313571  
H240     H      0.036770000000     0.778670000000     0.372780000000     0.0367873  
H241     H      0.997780000000     0.721360000000     0.140310000000     0.0449072  
H242     H      0.051810000000     0.617750000000     0.151600000000     0.0493204  
H243     H      0.092420000000     0.708130000000     0.215490000000     0.0176119  
H244     H      0.018330000000     0.867170000000     0.290000000000     0.036425   
H245     H      0.097070000000     0.782540000000     0.310390000000     0.0333667  
H246     H      0.078080000000     0.589170000000     0.228620000000     0.0754234  
H247     H      0.952430000000     0.286390000000     0.093520000000     0.0707944  
H248     H      0.918200000000     0.302490000000     0.215210000000     0.0404588  
H249     H      0.932790000000     0.209060000000     0.304990000000     0.0338867  
H250     H      0.023400000000     0.138640000000     0.274120000000     0.0336685  
H251     H      0.973680000000     0.369700000000     0.217980000000     0.0418022  
H252     H      0.004360000000     0.355310000000     0.106340000000     0.0463713  
H253     H      0.065100000000     0.296130000000     0.192140000000     0.00854501 
H254     H      0.000320000000     0.217920000000     0.360160000000     0.0319954  
H255     H      0.078320000000     0.205990000000     0.272980000000     0.0217203  
H256     H      0.039960000000     0.282600000000     0.076520000000     0.0642096  
N1       N      0.487710000000     0.287090000000     0.193550000000    -0.199725   
N2       N      0.512060000000     0.194030000000     0.292180000000    -0.189275   
N3       N      0.488890000000     0.788380000000     0.305460000000    -0.195132   
N4       N      0.510470000000     0.694390000000     0.206620000000    -0.183269   
N5       N      0.469860000000     0.805350000000     0.711550000000    -0.196992   
N6       N      0.504770000000     0.704720000000     0.798250000000    -0.18032    
N7       N      0.515690000000     0.211060000000     0.697480000000    -0.196382   
N8       N      0.467610000000     0.299760000000     0.790120000000    -0.186123   
N9       N      0.798250000000     0.290600000000     0.470260000000    -0.197173   
N10      N      0.701890000000     0.202470000000     0.511570000000    -0.188449   
N11      N      0.792820000000     0.695570000000     0.526470000000    -0.196947   
N12      N      0.706650000000     0.797650000000     0.496710000000    -0.183043   
N13      N      0.197710000000     0.294900000000     0.473970000000    -0.202684   
N14      N      0.298660000000     0.203710000000     0.491760000000    -0.184894   
N15      N      0.301990000000     0.791320000000     0.506880000000    -0.19415    
N16      N      0.200730000000     0.698520000000     0.521860000000    -0.185221   
N17      N      0.705540000000     0.459890000000     0.195600000000    -0.195055   
N18      N      0.799350000000     0.495890000000     0.290020000000    -0.183703   
N19      N      0.208270000000     0.501170000000     0.305420000000    -0.200005   
N20      N      0.302470000000     0.483990000000     0.205120000000    -0.188298   
N21      N      0.292620000000     0.512950000000     0.795960000000    -0.196958   
N22      N      0.194440000000     0.475230000000     0.707740000000    -0.186925   
N23      N      0.696190000000     0.485510000000     0.788940000000    -0.195582   
N24      N      0.789280000000     0.518330000000     0.694680000000    -0.184001   
N25      N      0.796200000000     0.789120000000     0.028500000000    -0.194065   
N26      N      0.704230000000     0.696690000000     0.986010000000    -0.182065   
N27      N      0.694700000000     0.285360000000     0.981550000000    -0.197303   
N28      N      0.792220000000     0.199570000000     0.024360000000    -0.185695   
N29      N      0.204220000000     0.797180000000     0.004310000000    -0.193953   
N30      N      0.300180000000     0.702250000000     0.034680000000    -0.18358    
N31      N      0.292260000000     0.299210000000     0.980810000000    -0.203059   
N32      N      0.192690000000     0.200640000000     0.976370000000    -0.18851    
N33      N      0.780570000000     0.983850000000     0.809320000000    -0.193998   
N34      N      0.700170000000     0.026010000000     0.706960000000    -0.185762   
N35      N      0.189790000000     0.993410000000     0.789320000000    -0.194926   
N36      N      0.291960000000     0.016290000000     0.699110000000    -0.182559   
N37      N      0.298400000000     0.009530000000     0.296400000000    -0.194121   
N38      N      0.204880000000     0.018220000000     0.194190000000    -0.18864    
N39      N      0.706770000000     0.977240000000     0.303280000000    -0.198344   
N40      N      0.799660000000     0.021970000000     0.212390000000    -0.185006   
N41      N      0.016540000000     0.290690000000     0.700760000000    -0.196725   
N42      N      0.982260000000     0.194500000000     0.792890000000    -0.185256   
N43      N      0.991800000000     0.700640000000     0.703930000000    -0.194928   
N44      N      0.963150000000     0.789030000000     0.805890000000    -0.181901   
N45      N      0.034570000000     0.701120000000     0.300560000000    -0.197561   
N46      N      0.003760000000     0.799820000000     0.210700000000    -0.184873   
N47      N      0.011140000000     0.208190000000     0.194810000000    -0.200514   
N48      N      0.983090000000     0.298370000000     0.294650000000    -0.18804    
O1       O      0.996300000000     0.174710000000     0.086980000000    -0.639362   
O2       O      0.003610000000     0.825930000000     0.101110000000    -0.578783   
O3       O      0.909280000000     0.013900000000     0.181810000000    -0.602052   
O4       O      0.095350000000     0.003470000000     0.171280000000    -0.633105   
O5       O      0.173780000000     0.001630000000     0.085920000000    -0.620836   
O6       O      0.824420000000     0.005540000000     0.103550000000    -0.583467   
O7       O      0.007630000000     0.909680000000     0.181160000000    -0.614399   
O8       O      0.001980000000     0.096950000000     0.171950000000    -0.622453   
O9       O      0.062870000000     0.935670000000     0.065420000000    -1.44845    
O10      O      0.933550000000     0.062480000000     0.066920000000    -1.47665    
O11      O      0.925140000000     0.924660000000     0.074530000000    -1.06174    
O12      O      0.063290000000     0.065880000000     0.061890000000    -1.64697    
O13      O      0.983700000000     0.818010000000     0.914160000000    -0.556818   
O14      O      0.991890000000     0.168570000000     0.902470000000    -0.625419   
O15      O      0.822100000000     0.899890000000     0.015710000000    -0.570833   
O16      O      0.171910000000     0.906590000000     0.004270000000    -0.626242   
O17      O      0.166370000000     0.090540000000     0.981520000000    -0.628784   
O18      O      0.819060000000     0.089260000000     0.016640000000    -0.57175    
O19      O      0.891630000000     0.987790000000     0.832130000000    -0.561712   
O20      O      0.080180000000     0.993500000000     0.822700000000    -0.571372   
O21      O      0.814680000000     0.989860000000     0.918060000000    -0.582223   
O22      O      0.165350000000     0.999970000000     0.900000000000    -0.614927   
O23      O      0.904660000000     0.819160000000     0.014480000000    -0.561441   
O24      O      0.900650000000     0.171270000000     0.010730000000    -0.62205    
O25      O      0.083970000000     0.171870000000     0.987220000000    -0.637699   
O26      O      0.092680000000     0.823040000000     0.005860000000    -0.562273   
O27      O      0.978180000000     0.898210000000     0.830500000000    -0.572544   
O28      O      0.986390000000     0.084710000000     0.822780000000    -0.572675   
O29      O      0.054630000000     0.059250000000     0.932230000000    -1.46284    
O30      O      0.928580000000     0.930400000000     0.944100000000    -1.36555    
O31      O      0.915580000000     0.059760000000     0.929710000000    -1.06802    
O32      O      0.057620000000     0.920380000000     0.926630000000    -1.04179    
O33      O      0.992000000000     0.324100000000     0.404590000000    -0.620921   
O34      O      0.011570000000     0.673320000000     0.408660000000    -0.57931    
O35      O      0.908720000000     0.495330000000     0.320890000000    -0.611351   
O36      O      0.096470000000     0.500480000000     0.329190000000    -0.622291   
O37      O      0.174500000000     0.502730000000     0.413890000000    -0.645795   
O38      O      0.824790000000     0.496990000000     0.400590000000    -0.577797   
O39      O      0.015190000000     0.592220000000     0.326930000000    -0.633001   
O40      O      0.992610000000     0.407540000000     0.323980000000    -0.628803   
O41      O      0.063890000000     0.561310000000     0.438570000000    -1.46976    
O42      O      0.935930000000     0.433850000000     0.433090000000    -1.47458    
O43      O      0.925180000000     0.572890000000     0.432240000000    -1.06171    
O44      O      0.064430000000     0.431620000000     0.433720000000    -1.64786    
O45      O      0.992580000000     0.671570000000     0.594100000000    -0.577085   
O46      O      0.007840000000     0.319700000000     0.590900000000    -0.613366   
O47      O      0.821400000000     0.588400000000     0.504230000000    -0.57224    
O48      O      0.172890000000     0.589590000000     0.506610000000    -0.61943    
O49      O      0.171910000000     0.403720000000     0.496910000000    -0.635012   
O50      O      0.824130000000     0.400990000000     0.484710000000    -0.572399   
O51      O      0.899090000000     0.503670000000     0.671740000000    -0.577589   
O52      O      0.085860000000     0.488660000000     0.677990000000    -0.579126   
O53      O      0.819750000000     0.501250000000     0.587250000000    -0.573771   
O54      O      0.168840000000     0.481540000000     0.597650000000    -0.622193   
O55      O      0.902830000000     0.670380000000     0.508650000000    -0.567316   
O56      O      0.906430000000     0.320420000000     0.486970000000    -0.632202   
O57      O      0.090000000000     0.322220000000     0.494980000000    -0.630168   
O58      O      0.091520000000     0.672090000000     0.507230000000    -0.571447   
O59      O      0.992600000000     0.589800000000     0.675470000000    -0.556976   
O60      O      0.998280000000     0.400000000000     0.673140000000    -0.586452   
O61      O      0.059880000000     0.431110000000     0.564770000000    -1.47344    
O62      O      0.933040000000     0.558610000000     0.561610000000    -1.38718    
O63      O      0.920970000000     0.428830000000     0.571110000000    -1.06298    
O64      O      0.061640000000     0.568950000000     0.576840000000    -1.05666    
O65      O      0.677120000000     0.989410000000     0.412600000000    -0.62403    
O66      O      0.327610000000     0.001920000000     0.405980000000    -0.5857     
O67      O      0.503590000000     0.899010000000     0.329870000000    -0.613572   
O68      O      0.503900000000     0.085390000000     0.323770000000    -0.631362   
O69      O      0.502680000000     0.170380000000     0.402610000000    -0.637274   
O70      O      0.500150000000     0.820060000000     0.414170000000    -0.56415    
O71      O      0.409220000000     0.004420000000     0.324630000000    -0.599385   
O72      O      0.596340000000     0.985800000000     0.330400000000    -0.629809   
O73      O      0.437970000000     0.061650000000     0.434270000000    -1.46335    
O74      O      0.566080000000     0.933200000000     0.440750000000    -1.45624    
O75      O      0.427820000000     0.923360000000     0.437440000000    -1.05505    
O76      O      0.568880000000     0.062900000000     0.434260000000    -1.63249    
O77      O      0.323110000000     0.003530000000     0.591230000000    -0.576214   
O78      O      0.674840000000     0.011480000000     0.597630000000    -0.613357   
O79      O      0.410630000000     0.822820000000     0.508990000000    -0.580523   
O80      O      0.408310000000     0.175380000000     0.487150000000    -0.61993    
O81      O      0.592640000000     0.174620000000     0.503030000000    -0.637085   
O82      O      0.596480000000     0.824950000000     0.501230000000    -0.573794   
O83      O      0.489500000000     0.912970000000     0.681100000000    -0.576956   
O84      O      0.505100000000     0.100380000000     0.673080000000    -0.572934   
O85      O      0.491040000000     0.828550000000     0.601970000000    -0.567319   
O86      O      0.508810000000     0.178390000000     0.588250000000    -0.618159   
O87      O      0.327870000000     0.902990000000     0.504820000000    -0.555806   
O88      O      0.678210000000     0.907050000000     0.502430000000    -0.620496   
O89      O      0.674210000000     0.092500000000     0.507720000000    -0.628244   
O90      O      0.326510000000     0.093740000000     0.495570000000    -0.573244   
O91      O      0.402870000000     0.008240000000     0.675130000000    -0.562151   
O92      O      0.591500000000     0.013550000000     0.678090000000    -0.579491   
O93      O      0.563490000000     0.065310000000     0.563970000000    -1.4794     
O94      O      0.436570000000     0.938210000000     0.566690000000    -1.37389    
O95      O      0.566030000000     0.927540000000     0.580520000000    -1.05703    
O96      O      0.426210000000     0.068770000000     0.572160000000    -1.06501    
O97      O      0.321960000000     0.408670000000     0.987820000000    -0.628355   
O98      O      0.670290000000     0.396560000000     0.990180000000    -0.572051   
O99      O      0.480040000000     0.323790000000     0.900060000000    -0.617592   
O100     O      0.496960000000     0.319020000000     0.084350000000    -0.640772   
O101     O      0.499960000000     0.397520000000     0.168700000000    -0.623977   
O102     O      0.482150000000     0.408150000000     0.820770000000    -0.57537    
O103     O      0.586460000000     0.317190000000     0.993400000000    -0.620202   
O104     O      0.401760000000     0.324560000000     0.990430000000    -0.640104   
O105     O      0.562320000000     0.427830000000     0.058050000000    -1.45901    
O106     O      0.430800000000     0.436370000000     0.933560000000    -1.47451    
O107     O      0.568110000000     0.430260000000     0.919440000000    -1.06524    
O108     O      0.431800000000     0.429910000000     0.062800000000    -1.63814    
O109     O      0.675950000000     0.586160000000     0.990300000000    -0.558631   
O110     O      0.324810000000     0.592620000000     0.018880000000    -0.617387   
O111     O      0.587240000000     0.497030000000     0.820340000000    -0.576849   
O112     O      0.595860000000     0.475090000000     0.169920000000    -0.608742   
O113     O      0.410910000000     0.494520000000     0.174390000000    -0.626647   
O114     O      0.401830000000     0.503360000000     0.824590000000    -0.590955   
O115     O      0.504040000000     0.674560000000     0.908240000000    -0.555826   
O116     O      0.504150000000     0.668450000000     0.096700000000    -0.576048   
O117     O      0.499320000000     0.594560000000     0.824370000000    -0.57425    
O118     O      0.503960000000     0.584500000000     0.176700000000    -0.60815    
O119     O      0.671130000000     0.492860000000     0.899300000000    -0.568688   
O120     O      0.320880000000     0.503890000000     0.906430000000    -0.604401   
O121     O      0.326540000000     0.496400000000     0.094850000000    -0.625189   
O122     O      0.675610000000     0.480350000000     0.086860000000    -0.572239   
O123     O      0.595320000000     0.669410000000     0.995860000000    -0.573959   
O124     O      0.408280000000     0.672840000000     0.014570000000    -0.566464   
O125     O      0.437920000000     0.559510000000     0.065540000000    -1.45661    
O126     O      0.562200000000     0.560270000000     0.934400000000    -1.36457    
O127     O      0.432230000000     0.575330000000     0.927820000000    -1.06404    
O128     O      0.576620000000     0.565920000000     0.064070000000    -1.05194    


