data_structure

_audit_creation_method RASPA-1.0
_audit_creation_date 2023-5-19
_audit_author_name 'Poobodin Mano'

_cell_length_a    20.5185
_cell_length_b    20.5394
_cell_length_c    20.5239
_cell_angle_alpha 90
_cell_angle_beta  90
_cell_angle_gamma 90
_cell_volume      8649.54

_symmetry_cell_setting          triclinic
_symmetry_space_group_name_Hall 'P 1'
_symmetry_space_group_name_H-M  'P 1'
_symmetry_Int_Tables_number     1

_symmetry_equiv_pos_as_xyz 'x,y,z'

loop_
_atom_site_label
_atom_site_type_symbol
_atom_site_fract_x
_atom_site_fract_y
_atom_site_fract_z
_atom_site_charge
C1       C      0.997570000000     0.168690000000     0.169130000000     0.50508    
C2       C      0.008760000000     0.857230000000     0.173220000000     0.508611   
C3       C      0.851170000000     0.028320000000     0.167640000000     0.508803   
C4       C      0.162600000000     0.001600000000     0.174230000000     0.502629   
C5       C      0.002160000000     0.855640000000     0.860070000000     0.496504   
C6       C      0.033150000000     0.167400000000     0.859050000000     0.503188   
C7       C      0.851550000000     0.858570000000     0.006290000000     0.495898   
C8       C      0.164080000000     0.853220000000     0.030460000000     0.503491   
C9       C      0.168680000000     0.165170000000     0.018160000000     0.500129   
C10      C      0.856940000000     0.171310000000     0.020800000000     0.505474   
C11      C      0.858770000000     0.009920000000     0.854350000000     0.496119   
C12      C      0.171660000000     0.009450000000     0.863010000000     0.504533   
C13      C      0.004940000000     0.359880000000     0.358230000000     0.498863   
C14      C      0.030840000000     0.670560000000     0.359580000000     0.509386   
C15      C      0.854440000000     0.516610000000     0.361580000000     0.503991   
C16      C      0.166100000000     0.519730000000     0.354790000000     0.503076   
C17      C      0.023820000000     0.669050000000     0.672480000000     0.497634   
C18      C      0.021200000000     0.356300000000     0.669830000000     0.502194   
C19      C      0.862360000000     0.673960000000     0.525700000000     0.494374   
C20      C      0.174900000000     0.666780000000     0.501120000000     0.507877   
C21      C      0.166690000000     0.355730000000     0.507380000000     0.504201   
C22      C      0.855730000000     0.360790000000     0.513930000000     0.505054   
C23      C      0.862140000000     0.524690000000     0.674180000000     0.492468   
C24      C      0.174990000000     0.496170000000     0.666400000000     0.508038   
C25      C      0.666120000000     0.002360000000     0.354370000000     0.504797   
C26      C      0.354060000000     0.018370000000     0.360270000000     0.502722   
C27      C      0.526350000000     0.852860000000     0.360460000000     0.506078   
C28      C      0.505070000000     0.163640000000     0.353360000000     0.502105   
C29      C      0.361810000000     0.016140000000     0.673020000000     0.493521   
C30      C      0.674340000000     0.032380000000     0.664980000000     0.506929   
C31      C      0.361180000000     0.853640000000     0.525920000000     0.493876   
C32      C      0.356040000000     0.166400000000     0.510760000000     0.50859    
C33      C      0.667110000000     0.170730000000     0.504490000000     0.504481   
C34      C      0.673970000000     0.859530000000     0.501960000000     0.505791   
C35      C      0.520360000000     0.859950000000     0.673260000000     0.494982   
C36      C      0.521540000000     0.173080000000     0.665080000000     0.506464   
C37      C      0.357240000000     0.354770000000     0.003590000000     0.501292   
C38      C      0.351850000000     0.666650000000     0.004160000000     0.502037   
C39      C      0.350330000000     0.494590000000     0.164890000000     0.504736   
C40      C      0.359730000000     0.522330000000     0.853520000000     0.507038   
C41      C      0.664480000000     0.670560000000     0.028360000000     0.4934     
C42      C      0.668830000000     0.358300000000     0.001120000000     0.505783   
C43      C      0.505430000000     0.664470000000     0.173670000000     0.494391   
C44      C      0.499560000000     0.672380000000     0.860880000000     0.507772   
C45      C      0.530020000000     0.362440000000     0.853780000000     0.508778   
C46      C      0.492160000000     0.351460000000     0.163570000000     0.505436   
C47      C      0.663260000000     0.505640000000     0.173480000000     0.494827   
C48      C      0.671390000000     0.507870000000     0.860720000000     0.506027   
C49      C      0.466490000000     0.320300000000     0.277510000000    -0.00215064 
C50      C      0.472410000000     0.235020000000     0.191110000000    -0.00171415 
C51      C      0.510080000000     0.279780000000     0.321900000000    -0.00213251 
C52      C      0.513650000000     0.191840000000     0.236060000000    -0.00384387 
C53      C      0.495100000000     0.780520000000     0.205060000000    -0.00333182 
C54      C      0.497420000000     0.693370000000     0.291100000000    -0.0042276  
C55      C      0.542760000000     0.821030000000     0.245030000000    -0.000855236
C56      C      0.542790000000     0.736060000000     0.332380000000    -0.00281786 
C57      C      0.482030000000     0.704140000000     0.745600000000    -0.000530063
C58      C      0.484460000000     0.789330000000     0.832720000000    -0.00293858 
C59      C      0.529650000000     0.743830000000     0.704750000000    -0.00345392 
C60      C      0.529840000000     0.831190000000     0.790620000000    -0.00416329 
C61      C      0.552080000000     0.335180000000     0.737710000000    -0.0032479  
C62      C      0.556050000000     0.248660000000     0.823030000000    -0.0020678  
C63      C      0.512520000000     0.290150000000     0.693160000000    -0.0024177  
C64      C      0.514030000000     0.204180000000     0.781110000000    -0.00262967 
C65      C      0.782030000000     0.201860000000     0.484810000000    -0.00251131 
C66      C      0.694780000000     0.287190000000     0.487460000000    -0.00196677 
C67      C      0.825730000000     0.244860000000     0.526590000000    -0.000341385
C68      C      0.739240000000     0.331630000000     0.527560000000    -0.00328765 
C69      C      0.746510000000     0.705520000000     0.540470000000    -0.00309712 
C70      C      0.833260000000     0.791330000000     0.533910000000    -0.00434784 
C71      C      0.705240000000     0.743230000000     0.491470000000    -0.00223696 
C72      C      0.790690000000     0.830280000000     0.486450000000    -0.00148243 
C73      C      0.240240000000     0.195350000000     0.528450000000    -0.00263805 
C74      C      0.326460000000     0.282350000000     0.522570000000     0.000198271
C75      C      0.193740000000     0.239280000000     0.490320000000    -0.00212879 
C76      C      0.280560000000     0.324760000000     0.482750000000    -0.00234698 
C77      C      0.332160000000     0.736420000000     0.536470000000    -0.0043494  
C78      C      0.244930000000     0.822040000000     0.537300000000    -0.00354525 
C79      C      0.291900000000     0.696140000000     0.488140000000    -0.00139321 
C80      C      0.206000000000     0.782820000000     0.487560000000    -0.00169343 
C81      C      0.737520000000     0.530780000000     0.333790000000    -0.00323848 
C82      C      0.822790000000     0.528870000000     0.245900000000    -0.000894777
C83      C      0.691970000000     0.490760000000     0.290180000000    -0.00367844 
C84      C      0.778460000000     0.486620000000     0.204030000000    -0.00311285 
C85      C      0.233120000000     0.482840000000     0.194470000000    -0.00260289 
C86      C      0.319320000000     0.476470000000     0.280440000000    -0.00255259 
C87      C      0.194090000000     0.530220000000     0.237190000000    -0.00428132 
C88      C      0.282350000000     0.525800000000     0.321970000000    -0.00321243 
C89      C      0.243560000000     0.531410000000     0.821200000000    -0.00280015 
C90      C      0.331370000000     0.532010000000     0.735970000000    -0.00402794 
C91      C      0.206190000000     0.480470000000     0.782170000000    -0.00240357 
C92      C      0.292070000000     0.482930000000     0.695580000000    -0.00241708 
C93      C      0.832800000000     0.537050000000     0.791270000000    -0.00436444 
C94      C      0.746360000000     0.540950000000     0.704980000000    -0.0038159  
C95      C      0.788660000000     0.493560000000     0.833140000000    -0.00295137 
C96      C      0.703910000000     0.495010000000     0.745050000000    -0.000544829
C97      C      0.693530000000     0.787450000000     0.041960000000    -0.00514021 
C98      C      0.780600000000     0.701890000000     0.042070000000    -0.00477079 
C99      C      0.734440000000     0.829020000000     0.995330000000    -0.000446254
C100     C      0.820600000000     0.742340000000     0.994150000000     0.000290898
C101     C      0.740400000000     0.201710000000     0.031810000000    -0.00363989 
C102     C      0.827080000000     0.287910000000     0.034340000000    -0.00286659 
C103     C      0.700620000000     0.242880000000     0.984360000000    -0.000421399
C104     C      0.786060000000     0.329980000000     0.988300000000    -0.00273454 
C105     C      0.279800000000     0.821100000000     0.046400000000    -0.00291696 
C106     C      0.192920000000     0.735730000000     0.039260000000    -0.00484305 
C107     C      0.321130000000     0.783480000000     0.997180000000    -0.00128077 
C108     C      0.235040000000     0.696950000000     0.991210000000    -0.00122321 
C109     C      0.241430000000     0.323860000000     0.988160000000    -0.00124454 
C110     C      0.328540000000     0.238240000000     0.988070000000    -0.00052935 
C111     C      0.199250000000     0.281110000000     0.031910000000    -0.00302379 
C112     C      0.285520000000     0.194400000000     0.030430000000    -0.00404513 
C113     C      0.791180000000     0.047140000000     0.694350000000    -0.00157691 
C114     C      0.704950000000     0.051910000000     0.780320000000    -0.00176567 
C115     C      0.830950000000     0.000200000000     0.736750000000    -0.00516267 
C116     C      0.742620000000     0.003030000000     0.821660000000    -0.00398488 
C117     C      0.333370000000     0.034260000000     0.789220000000    -0.00537297 
C118     C      0.246270000000     0.032510000000     0.703460000000    -0.00422956 
C119     C      0.288650000000     0.996150000000     0.835290000000     0.000952981
C120     C      0.202950000000     0.991970000000     0.747960000000     0.000559948
C121     C      0.236820000000     0.033460000000     0.332820000000    -0.00538136 
C122     C      0.321360000000     0.030690000000     0.244560000000    -0.00292022 
C123     C      0.192140000000     0.990090000000     0.291370000000    -0.00207066 
C124     C      0.278340000000     0.984840000000     0.204940000000    -0.00217762 
C125     C      0.782520000000     0.994080000000     0.322740000000    -0.00114604 
C126     C      0.695120000000     0.990840000000     0.237170000000    -0.00289215 
C127     C      0.819350000000     0.044960000000     0.283100000000    -0.00223378 
C128     C      0.733810000000     0.039890000000     0.196240000000    -0.00418835 
C129     C      0.014680000000     0.326110000000     0.786470000000    -0.00453066 
C130     C      0.014490000000     0.239420000000     0.699280000000    -0.00318312 
C131     C      0.057030000000     0.282230000000     0.829180000000    -0.00138072 
C132     C      0.056080000000     0.196070000000     0.743500000000    -0.00325632 
C133     C      0.987480000000     0.739380000000     0.830010000000    -0.00187117 
C134     C      0.988070000000     0.825680000000     0.743740000000    -0.00177749 
C135     C      0.034530000000     0.698360000000     0.789390000000    -0.00399242 
C136     C      0.035600000000     0.785280000000     0.703290000000    -0.00353935 
C137     C      0.003000000000     0.827590000000     0.290250000000    -0.00237879 
C138     C      0.001850000000     0.740640000000     0.203570000000    -0.00391263 
C139     C      0.050330000000     0.786330000000     0.330250000000    -0.00240342 
C140     C      0.049740000000     0.700590000000     0.243930000000    -0.000618286
C141     C      0.015180000000     0.329970000000     0.241710000000    -0.00468186 
C142     C      0.014850000000     0.243430000000     0.328800000000    -0.00418575 
C143     C      0.976330000000     0.284470000000     0.197190000000    -0.0019683  
C144     C      0.975190000000     0.199160000000     0.284010000000    -0.00162043 
Eu1      Eu     0.006610000000     0.011880000000     0.130600000000     3.50921    
Eu2      Eu     0.008220000000     0.896170000000     0.016180000000     3.05852    
Eu3      Eu     0.011850000000     0.127470000000     0.013530000000     3.45867    
Eu4      Eu     0.894370000000     0.014430000000     0.012080000000     3.0852     
Eu5      Eu     0.126010000000     0.008960000000     0.017370000000     3.48542    
Eu6      Eu     0.013870000000     0.011710000000     0.899130000000     3.04618    
Eu7      Eu     0.010900000000     0.516420000000     0.399350000000     3.4931     
Eu8      Eu     0.017940000000     0.630390000000     0.515730000000     3.07205    
Eu9      Eu     0.011400000000     0.399320000000     0.514740000000     3.48591    
Eu10     Eu     0.898850000000     0.517100000000     0.517160000000     3.01347    
Eu11     Eu     0.130440000000     0.512650000000     0.512760000000     3.52455    
Eu12     Eu     0.017960000000     0.513270000000     0.630900000000     3.04451    
Eu13     Eu     0.510500000000     0.008450000000     0.397730000000     3.48373    
Eu14     Eu     0.398490000000     0.010550000000     0.515670000000     3.01376    
Eu15     Eu     0.629950000000     0.013590000000     0.511430000000     3.50141    
Eu16     Eu     0.516600000000     0.896430000000     0.515930000000     3.04685    
Eu17     Eu     0.511940000000     0.127610000000     0.510950000000     3.54769    
Eu18     Eu     0.517540000000     0.015390000000     0.629210000000     3.03986    
Eu19     Eu     0.395160000000     0.511830000000     0.010850000000     3.49722    
Eu20     Eu     0.509000000000     0.628370000000     0.016480000000     3.02408    
Eu21     Eu     0.512890000000     0.397160000000     0.010590000000     3.51136    
Eu22     Eu     0.507420000000     0.508830000000     0.129300000000     3.04451    
Eu23     Eu     0.515020000000     0.517000000000     0.897870000000     3.54281    
Eu24     Eu     0.626830000000     0.513720000000     0.016340000000     3.04517    
H1       H      0.945840000000     0.954410000000     0.121550000000    -0.183245   
H2       H      0.103480000000     0.104990000000     0.113040000000     0.408185   
H3       H      0.954030000000     0.121280000000     0.951850000000    -0.165881   
H4       H      0.118110000000     0.949070000000     0.959160000000    -0.187727   
H5       H      0.954190000000     0.578130000000     0.408840000000    -0.178496   
H6       H      0.104440000000     0.419980000000     0.416110000000     0.415591   
H7       H      0.954320000000     0.408370000000     0.575500000000    -0.189316   
H8       H      0.126370000000     0.571630000000     0.573380000000    -0.173562   
H9       H      0.452050000000     0.947930000000     0.407780000000    -0.17123    
H10      H      0.605040000000     0.104690000000     0.413010000000     0.415458   
H11      H      0.625370000000     0.955470000000     0.572830000000    -0.172384   
H12      H      0.454970000000     0.119940000000     0.571800000000    -0.19522    
H13      H      0.400130000000     0.569370000000     0.072520000000    -0.175895   
H14      H      0.421280000000     0.420010000000     0.911680000000     0.411425   
H15      H      0.570530000000     0.402810000000     0.072610000000    -0.16869    
H16      H      0.573460000000     0.577260000000     0.908650000000    -0.182089   
H17      H      0.420420000000     0.220910000000     0.197110000000     0.0328588  
H18      H      0.414840000000     0.308250000000     0.288780000000     0.0332983  
H19      H      0.496150000000     0.290190000000     0.373170000000     0.0366031  
H20      H      0.486310000000     0.225010000000     0.139760000000     0.0364346  
H21      H      0.500620000000     0.140180000000     0.226590000000     0.035821   
H22      H      0.565770000000     0.198210000000     0.222640000000     0.0280542  
H23      H      0.473820000000     0.372620000000     0.289040000000     0.0379381  
H24      H      0.561360000000     0.295990000000     0.315150000000     0.0296365  
H25      H      0.446520000000     0.701660000000     0.307780000000     0.0343003  
H26      H      0.444740000000     0.796490000000     0.217170000000     0.0342594  
H27      H      0.534720000000     0.873330000000     0.233880000000     0.0380821  
H28      H      0.509460000000     0.641450000000     0.300390000000     0.0373892  
H29      H      0.532870000000     0.726510000000     0.384720000000     0.0378354  
H30      H      0.593880000000     0.720970000000     0.322390000000     0.0341729  
H31      H      0.503460000000     0.791150000000     0.152660000000     0.0383999  
H32      H      0.593130000000     0.808490000000     0.229380000000     0.0347454  
H33      H      0.433450000000     0.805130000000     0.823460000000     0.0344595  
H34      H      0.431620000000     0.717360000000     0.730650000000     0.0346541  
H35      H      0.520270000000     0.733240000000     0.652510000000     0.0380776  
H36      H      0.495350000000     0.798840000000     0.884880000000     0.0378886  
H37      H      0.518780000000     0.883300000000     0.800000000000     0.0379422  
H38      H      0.580840000000     0.822130000000     0.806550000000     0.0343365  
H39      H      0.489100000000     0.651700000000     0.734470000000     0.0382017  
H40      H      0.579960000000     0.727180000000     0.716120000000     0.0342169  
H41      H      0.608120000000     0.237760000000     0.812560000000     0.034787   
H42      H      0.604520000000     0.329660000000     0.725150000000     0.0348866  
H43      H      0.527190000000     0.299730000000     0.641920000000     0.0374476  
H44      H      0.547120000000     0.236960000000     0.875100000000     0.037424   
H45      H      0.528110000000     0.153030000000     0.791790000000     0.0379228  
H46      H      0.462240000000     0.210430000000     0.795870000000     0.0308121  
H47      H      0.538080000000     0.386410000000     0.727390000000     0.035593   
H48      H      0.460140000000     0.303250000000     0.697860000000     0.029284   
H49      H      0.700420000000     0.300250000000     0.435160000000     0.0289009  
H50      H      0.793950000000     0.210870000000     0.432710000000     0.0294147  
H51      H      0.877220000000     0.234160000000     0.513750000000     0.037941   
H52      H      0.643430000000     0.297220000000     0.501400000000     0.0362954  
H53      H      0.728870000000     0.382950000000     0.513900000000     0.0373371  
H54      H      0.726610000000     0.325650000000     0.579920000000     0.0350888  
H55      H      0.793640000000     0.150140000000     0.495580000000     0.0357108  
H56      H      0.818620000000     0.231120000000     0.578530000000     0.0343485  
H57      H      0.824090000000     0.809890000000     0.583990000000     0.0337516  
H58      H      0.731300000000     0.720250000000     0.590370000000     0.0344813  
H59      H      0.652990000000     0.732790000000     0.500990000000     0.0381489  
H60      H      0.885300000000     0.800570000000     0.522210000000     0.0375055  
H61      H      0.800430000000     0.882990000000     0.493620000000     0.0377728  
H62      H      0.805760000000     0.817590000000     0.435960000000     0.0345831  
H63      H      0.735820000000     0.652780000000     0.535140000000     0.0387731  
H64      H      0.716830000000     0.724920000000     0.441800000000     0.0349429  
H65      H      0.322130000000     0.296570000000     0.574690000000     0.0334267  
H66      H      0.230120000000     0.201550000000     0.581330000000     0.0345467  
H67      H      0.143190000000     0.229270000000     0.506940000000     0.0359396  
H68      H      0.377170000000     0.292940000000     0.506800000000     0.0369512  
H69      H      0.292600000000     0.376600000000     0.492390000000     0.0353879  
H70      H      0.289810000000     0.315300000000     0.430190000000     0.0281968  
H71      H      0.229340000000     0.143930000000     0.515590000000     0.0375198  
H72      H      0.196800000000     0.225930000000     0.437880000000     0.027591   
H73      H      0.227670000000     0.808520000000     0.586870000000     0.0349328  
H74      H      0.320820000000     0.719030000000     0.586520000000     0.033597   
H75      H      0.301550000000     0.643650000000     0.496930000000     0.0369599  
H76      H      0.234350000000     0.874570000000     0.530060000000     0.0382455  
H77      H      0.153330000000     0.793290000000     0.494340000000     0.0383714  
H78      H      0.219750000000     0.799880000000     0.437990000000     0.0346668  
H79      H      0.384700000000     0.727050000000     0.527410000000     0.037806   
H80      H      0.308930000000     0.707850000000     0.438050000000     0.034611   
H81      H      0.815410000000     0.580620000000     0.231760000000     0.0335257  
H82      H      0.725110000000     0.583140000000     0.327710000000     0.0338386  
H83      H      0.640910000000     0.505650000000     0.300350000000     0.0368886  
H84      H      0.874150000000     0.515930000000     0.234650000000     0.0372986  
H85      H      0.789670000000     0.496440000000     0.152000000000     0.038069   
H86      H      0.790360000000     0.434680000000     0.213730000000     0.0346557  
H87      H      0.727730000000     0.517570000000     0.385370000000     0.0376042  
H88      H      0.696930000000     0.438600000000     0.303840000000     0.0337123  
H89      H      0.303890000000     0.426780000000     0.295530000000     0.0287004  
H90      H      0.215050000000     0.432700000000     0.204090000000     0.0289194  
H91      H      0.141310000000     0.522140000000     0.228270000000     0.0360947  
H92      H      0.372240000000     0.480870000000     0.290890000000     0.0378789  
H93      H      0.293140000000     0.515960000000     0.374080000000     0.036063   
H94      H      0.301090000000     0.575270000000     0.310360000000     0.0360796  
H95      H      0.223430000000     0.494150000000     0.142430000000     0.0359668  
H96      H      0.205730000000     0.580660000000     0.221300000000     0.03453    
H97      H      0.319380000000     0.581770000000     0.718300000000     0.0342137  
H98      H      0.225230000000     0.580400000000     0.807120000000     0.0356715  
H99      H      0.153330000000     0.485470000000     0.792690000000     0.0378001  
H100     H      0.384110000000     0.523720000000     0.726990000000     0.0352759  
H101     H      0.301650000000     0.491760000000     0.643060000000     0.0367391  
H102     H      0.309970000000     0.433220000000     0.707470000000     0.0294111  
H103     H      0.232770000000     0.524400000000     0.873760000000     0.0367246  
H104     H      0.221620000000     0.431420000000     0.799240000000     0.029333   
H105     H      0.732220000000     0.591860000000     0.716900000000     0.0342262  
H106     H      0.825560000000     0.588390000000     0.806880000000     0.0340074  
H107     H      0.797970000000     0.504580000000     0.885300000000     0.037926   
H108     H      0.735630000000     0.532910000000     0.652560000000     0.0388017  
H109     H      0.651980000000     0.505290000000     0.733740000000     0.0375427  
H110     H      0.714340000000     0.444200000000     0.729470000000     0.0348978  
H111     H      0.884420000000     0.524060000000     0.801170000000     0.0378664  
H112     H      0.802880000000     0.442010000000     0.824610000000     0.0345788  
H113     H      0.796850000000     0.714090000000     0.092310000000     0.0352344  
H114     H      0.704210000000     0.803450000000     0.092620000000     0.0344416  
H115     H      0.724720000000     0.881220000000     0.005660000000     0.0364562  
H116     H      0.791280000000     0.649550000000     0.033660000000     0.0380312  
H117     H      0.873080000000     0.731910000000     0.002290000000     0.0375456  
H118     H      0.808360000000     0.726150000000     0.943900000000     0.034341   
H119     H      0.641130000000     0.797130000000     0.032480000000     0.0380765  
H120     H      0.717920000000     0.818930000000     0.944720000000     0.0342665  
H121     H      0.816260000000     0.302990000000     0.085250000000     0.033758   
H122     H      0.723380000000     0.212520000000     0.082120000000     0.0335399  
H123     H      0.648110000000     0.231890000000     0.991570000000     0.0371888  
H124     H      0.879460000000     0.297950000000     0.025060000000     0.0371842  
H125     H      0.795490000000     0.382070000000     0.999380000000     0.0384207  
H126     H      0.802820000000     0.320800000000     0.937600000000     0.0339412  
H127     H      0.730170000000     0.149520000000     0.022020000000     0.0377772  
H128     H      0.713700000000     0.228140000000     0.933870000000     0.0338519  
H129     H      0.202490000000     0.716840000000     0.089140000000     0.0336541  
H130     H      0.294800000000     0.805930000000     0.096220000000     0.0347352  
H131     H      0.373380000000     0.793350000000     0.007270000000     0.0373484  
H132     H      0.140750000000     0.726610000000     0.028040000000     0.0372463  
H133     H      0.225080000000     0.644240000000     0.998070000000     0.0374004  
H134     H      0.219720000000     0.710090000000     0.940920000000     0.0345465  
H135     H      0.290630000000     0.873850000000     0.041480000000     0.0383099  
H136     H      0.310140000000     0.802600000000     0.947670000000     0.0342458  
H137     H      0.320760000000     0.224600000000     0.936210000000     0.0293639  
H138     H      0.227360000000     0.314640000000     0.936630000000     0.0294747  
H139     H      0.147280000000     0.291850000000     0.021190000000     0.035637   
H140     H      0.380370000000     0.228180000000     0.000050000000     0.034878   
H141     H      0.295560000000     0.142860000000     0.017430000000     0.0356213  
H142     H      0.299920000000     0.201400000000     0.082210000000     0.0293741  
H143     H      0.230440000000     0.375670000000     0.999120000000     0.0355855  
H144     H      0.208560000000     0.295040000000     0.083440000000     0.0292731  
H145     H      0.719750000000     0.101780000000     0.795440000000     0.0343986  
H146     H      0.808340000000     0.097520000000     0.704360000000     0.0343937  
H147     H      0.883590000000     0.009220000000     0.727850000000     0.0382328  
H148     H      0.652100000000     0.046780000000     0.790800000000     0.0381284  
H149     H      0.731740000000     0.012620000000     0.873800000000     0.0381139  
H150     H      0.724540000000     0.953330000000     0.809970000000     0.0359275  
H151     H      0.801110000000     0.036410000000     0.642240000000     0.0368304  
H152     H      0.820130000000     0.949660000000     0.720600000000     0.0346596  
H153     H      0.233460000000     0.084720000000     0.710090000000     0.0347415  
H154     H      0.328040000000     0.087010000000     0.800220000000     0.0343655  
H155     H      0.298490000000     0.012390000000     0.885990000000     0.0360335  
H156     H      0.235020000000     0.019270000000     0.652200000000     0.0384748  
H157     H      0.151330000000     0.003450000000     0.736310000000     0.0368611  
H158     H      0.211070000000     0.939620000000     0.736680000000     0.0342461  
H159     H      0.384650000000     0.020450000000     0.799800000000     0.0377003  
H160     H      0.301750000000     0.943700000000     0.832090000000     0.0326822  
H161     H      0.311380000000     0.081470000000     0.228610000000     0.0303247  
H162     H      0.223000000000     0.085060000000     0.323990000000     0.0297055  
H163     H      0.140670000000     0.003660000000     0.301260000000     0.0334182  
H164     H      0.373160000000     0.019770000000     0.233240000000     0.0369131  
H165     H      0.289050000000     0.992380000000     0.152440000000     0.0371948  
H166     H      0.292060000000     0.933890000000     0.217180000000     0.0346853  
H167     H      0.227530000000     0.022880000000     0.385080000000     0.0376331  
H168     H      0.198900000000     0.938780000000     0.307320000000     0.0341933  
H169     H      0.708020000000     0.941010000000     0.220360000000     0.0348194  
H170     H      0.801600000000     0.945150000000     0.309490000000     0.0350125  
H171     H      0.872220000000     0.040780000000     0.293860000000     0.0379257  
H172     H      0.642300000000     0.998100000000     0.227810000000     0.0361886  
H173     H      0.724530000000     0.030220000000     0.143810000000     0.0370129  
H174     H      0.715110000000     0.089500000000     0.207330000000     0.029461   
H175     H      0.793000000000     0.002050000000     0.375220000000     0.035799   
H176     H      0.803210000000     0.094050000000     0.299360000000     0.0293027  
H177     H      0.962590000000     0.224960000000     0.705120000000     0.034288   
H178     H      0.962940000000     0.319660000000     0.801290000000     0.0350843  
H179     H      0.046740000000     0.293350000000     0.881140000000     0.0373919  
H180     H      0.028490000000     0.229650000000     0.647890000000     0.0378809  
H181     H      0.044580000000     0.144310000000     0.732830000000     0.0376522  
H182     H      0.108190000000     0.204150000000     0.730920000000     0.0342304  
H183     H      0.028320000000     0.377500000000     0.796550000000     0.0378406  
H184     H      0.109010000000     0.294450000000     0.819790000000     0.0332798  
H185     H      0.937690000000     0.813980000000     0.727480000000     0.0345605  
H186     H      0.936900000000     0.723660000000     0.818450000000     0.0343291  
H187     H      0.024550000000     0.646090000000     0.799080000000     0.0378704  
H188     H      0.996770000000     0.878070000000     0.733510000000     0.0388846  
H189     H      0.026870000000     0.795690000000     0.650900000000     0.0379386  
H190     H      0.085990000000     0.801430000000     0.715070000000     0.034812   
H191     H      0.996270000000     0.729110000000     0.882420000000     0.0383472  
H192     H      0.085020000000     0.708840000000     0.806110000000     0.0346958  
H193     H      0.951620000000     0.723670000000     0.214840000000     0.0346132  
H194     H      0.952690000000     0.817570000000     0.307740000000     0.0339729  
H195     H      0.042490000000     0.796550000000     0.382810000000     0.0376487  
H196     H      0.011190000000     0.730720000000     0.151180000000     0.0380019  
H197     H      0.041950000000     0.648120000000     0.233400000000     0.0382016  
H198     H      0.100030000000     0.713200000000     0.228070000000     0.0345337  
H199     H      0.013580000000     0.879780000000     0.299770000000     0.0378207  
H200     H      0.100830000000     0.801700000000     0.317910000000     0.0346598  
H201     H      0.067210000000     0.230290000000     0.323930000000     0.0251774  
H202     H      0.067700000000     0.325530000000     0.229040000000     0.0251727  
H203     H      0.989750000000     0.295070000000     0.145830000000     0.0366052  
H204     H      0.000100000000     0.233170000000     0.379880000000     0.0366337  
H205     H      0.987290000000     0.147740000000     0.295660000000     0.03546    
H206     H      0.922610000000     0.206490000000     0.294970000000     0.0344282  
H207     H      0.000070000000     0.380860000000     0.231180000000     0.0356408  
H208     H      0.923670000000     0.295940000000     0.202980000000     0.0347073  
N1       N      0.505450000000     0.210010000000     0.305270000000    -0.1905     
N2       N      0.479800000000     0.304070000000     0.208940000000    -0.187111   
N3       N      0.535280000000     0.805230000000     0.314600000000    -0.186878   
N4       N      0.501990000000     0.710900000000     0.221500000000    -0.184544   
N5       N      0.523980000000     0.813550000000     0.721110000000    -0.184643   
N6       N      0.490730000000     0.720040000000     0.815040000000    -0.187268   
N7       N      0.520530000000     0.221040000000     0.711490000000    -0.187206   
N8       N      0.542770000000     0.317100000000     0.806520000000    -0.190151   
N9       N      0.808320000000     0.314070000000     0.518360000000    -0.186902   
N10      N      0.713110000000     0.218300000000     0.496100000000    -0.19152    
N11      N      0.721380000000     0.813070000000     0.494910000000    -0.186749   
N12      N      0.816010000000     0.721640000000     0.531600000000    -0.1845     
N13      N      0.212350000000     0.308170000000     0.497710000000    -0.191995   
N14      N      0.308780000000     0.213100000000     0.515890000000    -0.187896   
N15      N      0.222280000000     0.713150000000     0.493550000000    -0.187279   
N16      N      0.314770000000     0.806020000000     0.531740000000    -0.18453    
N17      N      0.709620000000     0.498240000000     0.220970000000    -0.184814   
N18      N      0.806410000000     0.521210000000     0.315400000000    -0.186838   
N19      N      0.212200000000     0.523200000000     0.306530000000    -0.189451   
N20      N      0.302910000000     0.485930000000     0.211140000000    -0.187144   
N21      N      0.222360000000     0.487170000000     0.712540000000    -0.187904   
N22      N      0.313600000000     0.527280000000     0.805530000000    -0.190533   
N23      N      0.719560000000     0.501670000000     0.814820000000    -0.186772   
N24      N      0.815630000000     0.531510000000     0.721690000000    -0.183793   
N25      N      0.804070000000     0.811940000000     0.000770000000    -0.185966   
N26      N      0.710900000000     0.718020000000     0.035550000000    -0.184329   
N27      N      0.716520000000     0.312280000000     0.993220000000    -0.186535   
N28      N      0.810130000000     0.218530000000     0.026720000000    -0.186803   
N29      N      0.304550000000     0.713610000000     0.999280000000    -0.185726   
N30      N      0.210270000000     0.805410000000     0.037240000000    -0.186177   
N31      N      0.216170000000     0.211840000000     0.023210000000    -0.190591   
N32      N      0.310790000000     0.307320000000     0.996630000000    -0.190701   
N33      N      0.812720000000     0.006620000000     0.806090000000    -0.184631   
N34      N      0.721490000000     0.042620000000     0.711080000000    -0.187464   
N35      N      0.219570000000     0.003730000000     0.816840000000    -0.188043   
N36      N      0.315400000000     0.023180000000     0.720530000000    -0.183987   
N37      N      0.209170000000     0.994980000000     0.221730000000    -0.189412   
N38      N      0.305850000000     0.024700000000     0.314400000000    -0.186622   
N39      N      0.803520000000     0.036980000000     0.213520000000    -0.187876   
N40      N      0.712500000000     0.997000000000     0.306700000000    -0.18977    
N41      N      0.045930000000     0.213460000000     0.812380000000    -0.186543   
N42      N      0.021090000000     0.308840000000     0.716880000000    -0.185901   
N43      N      0.029080000000     0.715700000000     0.719830000000    -0.185308   
N44      N      0.994610000000     0.808800000000     0.813230000000    -0.184725   
N45      N      0.042280000000     0.717130000000     0.313320000000    -0.187663   
N46      N      0.007110000000     0.810300000000     0.220520000000    -0.187571   
N47      N      0.987110000000     0.215860000000     0.215280000000    -0.189639   
N48      N      0.006710000000     0.312620000000     0.310990000000    -0.190114   
O1       O      0.002690000000     0.187540000000     0.106440000000    -0.62224    
O2       O      0.007560000000     0.837790000000     0.110520000000    -0.578642   
O3       O      0.913400000000     0.025470000000     0.188370000000    -0.615766   
O4       O      0.099450000000     0.005440000000     0.192400000000    -0.627783   
O5       O      0.183000000000     0.003160000000     0.111910000000    -0.632209   
O6       O      0.833110000000     0.023130000000     0.104670000000    -0.574658   
O7       O      0.009710000000     0.920050000000     0.192140000000    -0.620267   
O8       O      0.000330000000     0.106170000000     0.189060000000    -0.629515   
O9       O      0.071820000000     0.947700000000     0.081460000000    -1.47321    
O10      O      0.946850000000     0.077340000000     0.076750000000    -1.48154    
O11      O      0.932930000000     0.940030000000     0.080350000000    -1.06018    
O12      O      0.076600000000     0.077850000000     0.083560000000    -1.63081    
O13      O      0.004030000000     0.836460000000     0.922860000000    -0.568167   
O14      O      0.028570000000     0.187120000000     0.921560000000    -0.611924   
O15      O      0.833140000000     0.921650000000     0.007600000000    -0.569742   
O16      O      0.184390000000     0.915650000000     0.029840000000    -0.607385   
O17      O      0.187080000000     0.102080000000     0.017520000000    -0.627881   
O18      O      0.836920000000     0.109020000000     0.016330000000    -0.5809     
O19      O      0.922060000000     0.010920000000     0.836700000000    -0.566759   
O20      O      0.109260000000     0.008800000000     0.842550000000    -0.576565   
O21      O      0.837870000000     0.011920000000     0.916620000000    -0.572965   
O22      O      0.189480000000     0.012160000000     0.926240000000    -0.613298   
O23      O      0.913930000000     0.838430000000     0.009970000000    -0.569268   
O24      O      0.920060000000     0.189740000000     0.020200000000    -0.606421   
O25      O      0.106210000000     0.185270000000     0.016610000000    -0.631367   
O26      O      0.101140000000     0.835110000000     0.024520000000    -0.571846   
O27      O      0.006530000000     0.918110000000     0.840450000000    -0.566278   
O28      O      0.026900000000     0.104930000000     0.839860000000    -0.574324   
O29      O      0.078130000000     0.074790000000     0.952830000000    -1.46301    
O30      O      0.947680000000     0.949820000000     0.950450000000    -1.38064    
O31      O      0.939760000000     0.080080000000     0.938480000000    -1.06666    
O32      O      0.077430000000     0.936100000000     0.943490000000    -1.05071    
O33      O      0.005440000000     0.340490000000     0.420960000000    -0.628419   
O34      O      0.026180000000     0.689730000000     0.422210000000    -0.575011   
O35      O      0.916800000000     0.514190000000     0.340980000000    -0.620728   
O36      O      0.102840000000     0.519080000000     0.337090000000    -0.623605   
O37      O      0.186920000000     0.517250000000     0.417100000000    -0.625912   
O38      O      0.836800000000     0.517600000000     0.424840000000    -0.573426   
O39      O      0.025800000000     0.608240000000     0.339750000000    -0.612926   
O40      O      0.005730000000     0.422800000000     0.339240000000    -0.628821   
O41      O      0.078660000000     0.576510000000     0.449980000000    -1.48469    
O42      O      0.947600000000     0.451790000000     0.451060000000    -1.45639    
O43      O      0.941120000000     0.591260000000     0.450460000000    -1.05938    
O44      O      0.078070000000     0.447370000000     0.445780000000    -1.64568    
O45      O      0.022160000000     0.688820000000     0.609870000000    -0.573463   
O46      O      0.020710000000     0.337680000000     0.606750000000    -0.608006   
O47      O      0.841840000000     0.611680000000     0.523860000000    -0.563955   
O48      O      0.193050000000     0.603670000000     0.502240000000    -0.615687   
O49      O      0.187400000000     0.417950000000     0.508670000000    -0.639569   
O50      O      0.837620000000     0.423930000000     0.516240000000    -0.568243   
O51      O      0.925260000000     0.520870000000     0.692450000000    -0.56069    
O52      O      0.112940000000     0.501950000000     0.687070000000    -0.575833   
O53      O      0.841760000000     0.522740000000     0.611800000000    -0.563362   
O54      O      0.193100000000     0.498720000000     0.603280000000    -0.618969   
O55      O      0.925500000000     0.692070000000     0.522060000000    -0.569591   
O56      O      0.918100000000     0.340650000000     0.510650000000    -0.6186     
O57      O      0.103650000000     0.337710000000     0.511330000000    -0.629838   
O58      O      0.112780000000     0.687180000000     0.506980000000    -0.575177   
O59      O      0.022660000000     0.606160000000     0.691250000000    -0.569966   
O60      O      0.019450000000     0.418930000000     0.689430000000    -0.573289   
O61      O      0.079440000000     0.448030000000     0.576370000000    -1.46879    
O62      O      0.954550000000     0.578770000000     0.580410000000    -1.3703     
O63      O      0.941120000000     0.449320000000     0.590090000000    -1.04841    
O64      O      0.085520000000     0.586000000000     0.587800000000    -1.06922    
O65      O      0.686690000000     0.006440000000     0.416580000000    -0.628623   
O66      O      0.336440000000     0.015220000000     0.423460000000    -0.571764   
O67      O      0.522080000000     0.914980000000     0.339700000000    -0.614172   
O68      O      0.506580000000     0.100460000000     0.335490000000    -0.62858    
O69      O      0.505530000000     0.184190000000     0.415750000000    -0.635312   
O70      O      0.523010000000     0.834920000000     0.423540000000    -0.571976   
O71      O      0.416400000000     0.016270000000     0.339500000000    -0.615638   
O72      O      0.602950000000     0.003170000000     0.336250000000    -0.623535   
O73      O      0.448110000000     0.074240000000     0.448720000000    -1.46861    
O74      O      0.577780000000     0.948810000000     0.449510000000    -1.47653    
O75      O      0.439810000000     0.935200000000     0.449860000000    -1.06177    
O76      O      0.578340000000     0.077910000000     0.442950000000    -1.64704    
O77      O      0.341400000000     0.012840000000     0.610660000000    -0.562714   
O78      O      0.692570000000     0.028670000000     0.601940000000    -0.615394   
O79      O      0.424210000000     0.835270000000     0.523080000000    -0.569889   
O80      O      0.418470000000     0.186330000000     0.506450000000    -0.622129   
O81      O      0.604130000000     0.188980000000     0.507210000000    -0.639856   
O82      O      0.611730000000     0.839380000000     0.508130000000    -0.569829   
O83      O      0.519760000000     0.923140000000     0.691240000000    -0.567742   
O84      O      0.520410000000     0.110770000000     0.685630000000    -0.570498   
O85      O      0.519480000000     0.839480000000     0.610870000000    -0.571503   
O86      O      0.520900000000     0.190860000000     0.601780000000    -0.613746   
O87      O      0.340910000000     0.916040000000     0.523140000000    -0.567132   
O88      O      0.692290000000     0.922550000000     0.502190000000    -0.614047   
O89      O      0.687490000000     0.108350000000     0.506490000000    -0.633227   
O90      O      0.337710000000     0.103460000000     0.513910000000    -0.567212   
O91      O      0.425050000000     0.016260000000     0.691070000000    -0.563672   
O92      O      0.612270000000     0.026890000000     0.685570000000    -0.576781   
O93      O      0.579320000000     0.079570000000     0.573760000000    -1.47391    
O94      O      0.453340000000     0.949230000000     0.580230000000    -1.36149    
O95      O      0.584500000000     0.941430000000     0.587470000000    -1.06492    
O96      O      0.441670000000     0.079230000000     0.586910000000    -1.05181    
O97      O      0.420250000000     0.336280000000     0.005030000000    -0.634269   
O98      O      0.414280000000     0.686300000000     0.010090000000    -0.566858   
O99      O      0.332320000000     0.497590000000     0.101680000000    -0.610282   
O100     O      0.338860000000     0.519070000000     0.915680000000    -0.630363   
O101     O      0.422970000000     0.521020000000     0.835730000000    -0.634488   
O102     O      0.412420000000     0.499570000000     0.185590000000    -0.573233   
O103     O      0.333270000000     0.603650000000     0.002980000000    -0.611311   
O104     O      0.337180000000     0.417250000000     0.006180000000    -0.63183    
O105     O      0.447670000000     0.576800000000     0.949300000000    -1.47884    
O106     O      0.445610000000     0.445790000000     0.072840000000    -1.47699    
O107     O      0.440910000000     0.583220000000     0.087520000000    -1.05948    
O108     O      0.446960000000     0.447140000000     0.942200000000    -1.64013    
O109     O      0.601550000000     0.689140000000     0.024760000000    -0.567308   
O110     O      0.606290000000     0.338160000000     0.001950000000    -0.615023   
O111     O      0.506060000000     0.601190000000     0.191530000000    -0.566615   
O112     O      0.503530000000     0.610340000000     0.840010000000    -0.623217   
O113     O      0.525320000000     0.425410000000     0.835830000000    -0.632284   
O114     O      0.496990000000     0.413370000000     0.184760000000    -0.571697   
O115     O      0.683770000000     0.508910000000     0.111190000000    -0.572021   
O116     O      0.688950000000     0.510660000000     0.923980000000    -0.569814   
O117     O      0.599940000000     0.506080000000     0.191420000000    -0.567016   
O118     O      0.609130000000     0.510150000000     0.839850000000    -0.618346   
O119     O      0.506160000000     0.685040000000     0.111360000000    -0.569784   
O120     O      0.497540000000     0.333730000000     0.100500000000    -0.614427   
O121     O      0.524700000000     0.341320000000     0.915690000000    -0.630436   
O122     O      0.503050000000     0.690160000000     0.924040000000    -0.568753   
O123     O      0.684610000000     0.608100000000     0.025330000000    -0.570396   
O124     O      0.687260000000     0.420980000000     0.007200000000    -0.569668   
O125     O      0.576520000000     0.451540000000     0.949390000000    -1.48865    
O126     O      0.572030000000     0.574980000000     0.080790000000    -1.364      
O127     O      0.583240000000     0.444130000000     0.087190000000    -1.06806    
O128     O      0.585900000000     0.589680000000     0.950730000000    -1.05761    


