data_structure

_audit_creation_method RASPA-1.0
_audit_creation_date 2023-5-19
_audit_author_name 'Poobodin Mano'

_cell_length_a    20.6457
_cell_length_b    20.5834
_cell_length_c    20.6943
_cell_angle_alpha 90
_cell_angle_beta  90
_cell_angle_gamma 90
_cell_volume      8794.22

_symmetry_cell_setting          triclinic
_symmetry_space_group_name_Hall 'P 1'
_symmetry_space_group_name_H-M  'P 1'
_symmetry_Int_Tables_number     1

_symmetry_equiv_pos_as_xyz 'x,y,z'

loop_
_atom_site_label
_atom_site_type_symbol
_atom_site_fract_x
_atom_site_fract_y
_atom_site_fract_z
_atom_site_charge
Br1      Br     0.441810000000     0.086940000000     0.189820000000    -0.24412    
Br2      Br     0.494820000000     0.683420000000     0.407410000000    -0.226045   
Br3      Br     0.480320000000     0.908400000000     0.807270000000    -0.221626   
Br4      Br     0.472920000000     0.307660000000     0.587100000000    -0.180755   
Br5      Br     0.595090000000     0.301930000000     0.455520000000    -0.200772   
Br6      Br     0.800250000000     0.899740000000     0.517780000000    -0.196344   
Br7      Br     0.388380000000     0.293310000000     0.422850000000    -0.197466   
Br8      Br     0.096010000000     0.806000000000     0.477300000000    -0.207231   
Br9      Br     0.893260000000     0.449720000000     0.194220000000    -0.219506   
Br10     Br     0.302800000000     0.499110000000     0.396100000000    -0.220179   
Br11     Br     0.398860000000     0.509360000000     0.689230000000    -0.221819   
Br12     Br     0.690900000000     0.476950000000     0.594450000000    -0.217021   
Br13     Br     0.897440000000     0.696620000000     0.046990000000    -0.222597   
Br14     Br     0.890680000000     0.304620000000     0.018970000000    -0.209523   
Br15     Br     0.189110000000     0.600130000000     0.011760000000    -0.231791   
Br16     Br     0.089110000000     0.308700000000     0.001700000000    -0.220836   
Br17     Br     0.889670000000     0.933330000000     0.701740000000    -0.212595   
Br18     Br     0.394300000000     0.074220000000     0.788470000000    -0.224299   
Br19     Br     0.185020000000     0.991790000000     0.403580000000    -0.206101   
Br20     Br     0.795510000000     0.026340000000     0.393640000000    -0.200505   
Br21     Br     0.071500000000     0.202670000000     0.602680000000    -0.216935   
Br22     Br     0.887200000000     0.724170000000     0.817840000000    -0.228709   
Br23     Br     0.018370000000     0.904850000000     0.306380000000    -0.199392   
Br24     Br     0.948110000000     0.197450000000     0.394320000000    -0.209141   
C1       C      0.979740000000     0.156550000000     0.149050000000     0.506526   
C2       C      0.014160000000     0.847980000000     0.156640000000     0.516219   
C3       C      0.837870000000     0.995760000000     0.150090000000     0.506357   
C4       C      0.148800000000     0.005720000000     0.154810000000     0.502343   
C5       C      0.000790000000     0.842350000000     0.845380000000     0.513189   
C6       C      0.010840000000     0.154190000000     0.843260000000     0.508978   
C7       C      0.845560000000     0.838110000000     0.996760000000     0.504566   
C8       C      0.156160000000     0.848230000000     0.013320000000     0.505086   
C9       C      0.145910000000     0.159240000000     0.988990000000     0.520456   
C10      C      0.837500000000     0.153150000000     0.004240000000     0.512266   
C11      C      0.845120000000     0.993360000000     0.839190000000     0.509475   
C12      C      0.153540000000     0.014600000000     0.844920000000     0.506929   
C13      C      0.991140000000     0.341840000000     0.342380000000     0.514939   
C14      C      0.000560000000     0.654820000000     0.341130000000     0.504308   
C15      C      0.842110000000     0.490440000000     0.338610000000     0.516389   
C16      C      0.152070000000     0.505820000000     0.341750000000     0.507892   
C17      C      0.994590000000     0.651580000000     0.652450000000     0.501789   
C18      C      0.008750000000     0.340030000000     0.649460000000     0.515844   
C19      C      0.839880000000     0.651870000000     0.505190000000     0.497862   
C20      C      0.151330000000     0.655090000000     0.487120000000     0.51109    
C21      C      0.149940000000     0.343110000000     0.490750000000     0.5045     
C22      C      0.840120000000     0.342150000000     0.494120000000     0.507487   
C23      C      0.838930000000     0.500350000000     0.649720000000     0.504152   
C24      C      0.151980000000     0.486250000000     0.651280000000     0.502507   
C25      C      0.647870000000     0.993350000000     0.339580000000     0.509811   
C26      C      0.334660000000     0.988140000000     0.345530000000     0.5137     
C27      C      0.507820000000     0.832390000000     0.349690000000     0.516751   
C28      C      0.486380000000     0.141700000000     0.331600000000     0.511133   
C29      C      0.344390000000     0.006450000000     0.655690000000     0.501952   
C30      C      0.653560000000     0.007750000000     0.648200000000     0.506772   
C31      C      0.341110000000     0.840600000000     0.513080000000     0.490485   
C32      C      0.341170000000     0.153370000000     0.481030000000     0.516638   
C33      C      0.649130000000     0.153530000000     0.485410000000     0.512206   
C34      C      0.653820000000     0.843930000000     0.491690000000     0.51813    
C35      C      0.497930000000     0.849900000000     0.659970000000     0.504713   
C36      C      0.508920000000     0.162670000000     0.640880000000     0.516075   
C37      C      0.338080000000     0.343540000000     0.000220000000     0.513275   
C38      C      0.338150000000     0.653900000000     0.992040000000     0.515257   
C39      C      0.336110000000     0.483090000000     0.149110000000     0.50215    
C40      C      0.341380000000     0.508340000000     0.838860000000     0.510558   
C41      C      0.650440000000     0.651440000000     0.008860000000     0.491101   
C42      C      0.647220000000     0.338940000000     0.981060000000     0.502153   
C43      C      0.494370000000     0.647460000000     0.156630000000     0.494213   
C44      C      0.483490000000     0.657500000000     0.845950000000     0.506      
C45      C      0.497440000000     0.347700000000     0.836080000000     0.503523   
C46      C      0.478930000000     0.335570000000     0.144810000000     0.506447   
C47      C      0.647520000000     0.486770000000     0.152400000000     0.495929   
C48      C      0.650750000000     0.489550000000     0.842130000000     0.502938   
C49      C      0.466760000000     0.302630000000     0.259140000000    -0.000384287
C50      C      0.450450000000     0.221490000000     0.171140000000    -0.0312943  
C51      C      0.507430000000     0.253660000000     0.296210000000    -0.00630856 
C52      C      0.484720000000     0.168920000000     0.211950000000     0.114309   
C53      C      0.490460000000     0.762770000000     0.190780000000    -0.0048253  
C54      C      0.478780000000     0.673480000000     0.272550000000    -0.0348048  
C55      C      0.533760000000     0.799580000000     0.237930000000    -0.00178674 
C56      C      0.520130000000     0.712450000000     0.320630000000     0.113467   
C57      C      0.468030000000     0.691000000000     0.731910000000    -0.004088   
C58      C      0.463570000000     0.773580000000     0.820010000000    -0.0321203  
C59      C      0.511690000000     0.735710000000     0.692660000000    -0.0033173  
C60      C      0.504770000000     0.820640000000     0.779450000000     0.1109     
C61      C      0.496740000000     0.232760000000     0.801490000000    -0.0039022  
C62      C      0.478250000000     0.322130000000     0.721150000000    -0.0344475  
C63      C      0.537170000000     0.196740000000     0.751410000000    -0.000680888
C64      C      0.513970000000     0.282740000000     0.668930000000     0.112657   
C65      C      0.806800000000     0.228510000000     0.516470000000    -0.00233902 
C66      C      0.723620000000     0.315190000000     0.499340000000    -0.0335932  
C67      C      0.765280000000     0.181240000000     0.477170000000    -0.00517046 
C68      C      0.684020000000     0.268840000000     0.457430000000     0.111672   
C69      C      0.723970000000     0.682210000000     0.516970000000    -0.00418704 
C70      C      0.810590000000     0.765550000000     0.529780000000    -0.0349401  
C71      C      0.684780000000     0.729510000000     0.475560000000    -0.00490638 
C72      C      0.772690000000     0.813550000000     0.487920000000     0.114865   
C73      C      0.179250000000     0.231270000000     0.458300000000    -0.00156858 
C74      C      0.261310000000     0.318920000000     0.458350000000    -0.0326243  
C75      C      0.226840000000     0.183190000000     0.487510000000    -0.0034408  
C76      C      0.314580000000     0.271030000000     0.478180000000     0.116316   
C77      C      0.309190000000     0.724120000000     0.523330000000    -0.00637521 
C78      C      0.224900000000     0.811330000000     0.524570000000    -0.0353234  
C79      C      0.267310000000     0.684800000000     0.475960000000    -0.00404712 
C80      C      0.185370000000     0.773800000000     0.474320000000     0.113551   
C81      C      0.677700000000     0.469930000000     0.267190000000    -0.00420347 
C82      C      0.759570000000     0.456380000000     0.180140000000    -0.0333858  
C83      C      0.727770000000     0.504440000000     0.309370000000    -0.00350196 
C84      C      0.811390000000     0.490320000000     0.220800000000     0.115289   
C85      C      0.219930000000     0.473350000000     0.181080000000    -0.00556602 
C86      C      0.307060000000     0.465130000000     0.264180000000    -0.0340374  
C87      C      0.181500000000     0.518460000000     0.226230000000    -0.00481941 
C88      C      0.270790000000     0.512990000000     0.307830000000     0.111312   
C89      C      0.183170000000     0.474050000000     0.767070000000    -0.00443819 
C90      C      0.267730000000     0.472330000000     0.680840000000    -0.034273   
C91      C      0.226010000000     0.519330000000     0.807700000000    -0.00677291 
C92      C      0.309490000000     0.519610000000     0.720100000000     0.111881   
C93      C      0.766640000000     0.476750000000     0.811650000000    -0.00285396 
C94      C      0.679940000000     0.466120000000     0.728540000000    -0.0323329  
C95      C      0.807900000000     0.515880000000     0.763880000000    -0.0068509  
C96      C      0.719890000000     0.505930000000     0.680270000000     0.112347   
C97      C      0.682710000000     0.767260000000     0.017910000000    -0.000824281
C98      C      0.763420000000     0.679620000000     0.037610000000    -0.0327707  
C99      C      0.732540000000     0.804900000000     0.978300000000    -0.00585496 
C100     C      0.816310000000     0.718700000000     0.002330000000     0.113567   
C101     C      0.678970000000     0.222720000000     0.966550000000    -0.00518152 
C102     C      0.763200000000     0.309740000000     0.969380000000    -0.0352012  
C103     C      0.720760000000     0.181060000000     0.012230000000    -0.00445232 
C104     C      0.801770000000     0.270920000000     0.019190000000     0.114182   
C105     C      0.272420000000     0.816750000000     0.022970000000    -0.00206692 
C106     C      0.185460000000     0.733970000000     0.036610000000    -0.0327293  
C107     C      0.309370000000     0.769800000000     0.978570000000    -0.00590559 
C108     C      0.219740000000     0.687860000000     0.989830000000     0.113598   
C109     C      0.306010000000     0.227740000000     0.009620000000    -0.00173601 
C110     C      0.223500000000     0.315890000000     0.022070000000    -0.0317758  
C111     C      0.259040000000     0.190410000000     0.966430000000    -0.00449012 
C112     C      0.176410000000     0.278620000000     0.978660000000     0.109212   
C113     C      0.683400000000     0.989640000000     0.761620000000    -0.00547126 
C114     C      0.765860000000     0.980870000000     0.673200000000    -0.0348568  
C115     C      0.734070000000     0.017380000000     0.806790000000     0.0011518  
C116     C      0.820460000000     0.995690000000     0.721720000000     0.116147   
C117     C      0.182620000000     0.030950000000     0.729940000000    -0.0024467  
C118     C      0.264470000000     0.048840000000     0.816020000000    -0.0298388  
C119     C      0.231340000000     0.993520000000     0.689290000000    -0.00447722 
C120     C      0.318050000000     0.019130000000     0.773390000000     0.113004   
C121     C      0.264460000000     0.013400000000     0.187190000000    -0.00296365 
C122     C      0.176810000000     0.021280000000     0.270450000000    -0.0344946  
C123     C      0.302430000000     0.968330000000     0.232100000000    -0.00198094 
C124     C      0.215320000000     0.976020000000     0.315050000000     0.114608   
C125     C      0.724240000000     0.969740000000     0.179910000000    -0.00472423 
C126     C      0.809110000000     0.984740000000     0.265140000000    -0.0331961  
C127     C      0.674740000000     0.003750000000     0.223800000000    -0.00326981 
C128     C      0.761730000000     0.024510000000     0.305140000000     0.112887   
C129     C      0.031960000000     0.268680000000     0.813410000000    -0.00275382 
C130     C      0.048190000000     0.180750000000     0.733210000000    -0.032236   
C131     C      0.997710000000     0.310500000000     0.763350000000    -0.00393696 
C132     C      0.018870000000     0.222390000000     0.679030000000     0.115597   
C133     C      0.990110000000     0.767110000000     0.683240000000    -0.00789175 
C134     C      0.007780000000     0.678420000000     0.767560000000    -0.0263055  
C135     C      0.023860000000     0.809910000000     0.733080000000     0.0082779  
C136     C      0.981360000000     0.728290000000     0.815640000000     0.11727    
C137     C      0.997360000000     0.687080000000     0.225450000000    -0.0068214  
C138     C      0.988320000000     0.771100000000     0.312990000000    -0.0372958  
C139     C      0.039550000000     0.734190000000     0.186430000000    -0.00121393 
C140     C      0.032820000000     0.816220000000     0.274490000000     0.116527   
C141     C      0.971700000000     0.273120000000     0.179150000000    -0.00927497 
C142     C      0.947870000000     0.186770000000     0.260110000000    -0.0331233  
C143     C      0.011560000000     0.309830000000     0.229570000000     0.0011276  
C144     C      0.987150000000     0.222860000000     0.311560000000     0.113012   
Eu1      Eu     0.993610000000     0.000400000000     0.112040000000     3.52007    
Eu2      Eu     0.999890000000     0.884010000000     0.999830000000     3.04528    
Eu3      Eu     0.992040000000     0.114130000000     0.995630000000     3.53034    
Eu4      Eu     0.880520000000     0.996240000000     0.995930000000     2.99447    
Eu5      Eu     0.111720000000     0.001990000000     0.998990000000     3.52409    
Eu6      Eu     0.999060000000     0.998210000000     0.883320000000     3.08545    
Eu7      Eu     0.995500000000     0.499600000000     0.381140000000     3.48651    
Eu8      Eu     0.995800000000     0.613410000000     0.496750000000     3.05257    
Eu9      Eu     0.995220000000     0.383060000000     0.496430000000     3.49078    
Eu10     Eu     0.881000000000     0.497460000000     0.495180000000     3.05793    
Eu11     Eu     0.110790000000     0.499500000000     0.497010000000     3.48297    
Eu12     Eu     0.996320000000     0.496540000000     0.611470000000     3.06307    
Eu13     Eu     0.491870000000     0.989060000000     0.381700000000     3.48057    
Eu14     Eu     0.380170000000     0.996630000000     0.498850000000     3.00537    
Eu15     Eu     0.609710000000     0.997330000000     0.494690000000     3.54969    
Eu16     Eu     0.496670000000     0.881140000000     0.502500000000     3.05983    
Eu17     Eu     0.494090000000     0.111690000000     0.490330000000     3.53012    
Eu18     Eu     0.498260000000     0.003760000000     0.610980000000     3.05058    
Eu19     Eu     0.378950000000     0.498930000000     0.995800000000     3.52421    
Eu20     Eu     0.494430000000     0.613010000000     0.999990000000     3.01119    
Eu21     Eu     0.493660000000     0.381700000000     0.992790000000     3.51588    
Eu22     Eu     0.492620000000     0.492870000000     0.111030000000     3.07292    
Eu23     Eu     0.495820000000     0.501880000000     0.881930000000     3.51118    
Eu24     Eu     0.609200000000     0.495810000000     0.996870000000     3.02852    
H1       H      0.938070000000     0.938190000000     0.104370000000    -0.183859   
H2       H      0.085460000000     0.099080000000     0.091440000000     0.4166     
H3       H      0.934220000000     0.104810000000     0.935160000000    -0.171413   
H4       H      0.107170000000     0.941420000000     0.940720000000    -0.175749   
H5       H      0.936460000000     0.557940000000     0.389710000000    -0.187827   
H6       H      0.089410000000     0.405940000000     0.400410000000     0.416121   
H7       H      0.937030000000     0.390040000000     0.556130000000    -0.175033   
H8       H      0.103570000000     0.558290000000     0.556950000000    -0.165824   
H9       H      0.434320000000     0.929040000000     0.394230000000    -0.175026   
H10      H      0.585350000000     0.087100000000     0.395540000000     0.425426   
H11      H      0.604010000000     0.940770000000     0.555850000000    -0.187996   
H12      H      0.436490000000     0.107630000000     0.551050000000    -0.176389   
H13      H      0.386430000000     0.555790000000     0.056940000000    -0.180395   
H14      H      0.399230000000     0.406510000000     0.898880000000     0.414753   
H15      H      0.552380000000     0.386370000000     0.052630000000    -0.174271   
H16      H      0.555490000000     0.560840000000     0.891440000000    -0.174016   
H17      H      0.397250000000     0.217180000000     0.178670000000     0.0567222  
H18      H      0.415670000000     0.299000000000     0.275750000000     0.05452    
H19      H      0.505080000000     0.266210000000     0.348100000000     0.0742757  
H20      H      0.459860000000     0.211500000000     0.119190000000     0.0598609  
H21      H      0.535480000000     0.165020000000     0.194400000000     0.01962    
H22      H      0.484600000000     0.352180000000     0.270840000000     0.0528441  
H23      H      0.558850000000     0.259550000000     0.281210000000     0.0388963  
H24      H      0.426790000000     0.683100000000     0.283000000000     0.0596321  
H25      H      0.440000000000     0.780890000000     0.196170000000     0.0393933  
H26      H      0.530350000000     0.852200000000     0.226640000000     0.0443313  
H27      H      0.487430000000     0.620850000000     0.280920000000     0.0665716  
H28      H      0.571190000000     0.696460000000     0.314160000000     0.0251673  
H29      H      0.506770000000     0.773990000000     0.140830000000     0.0417432  
H30      H      0.584790000000     0.784820000000     0.228770000000     0.0366949  
H31      H      0.411530000000     0.784900000000     0.811620000000     0.0560083  
H32      H      0.416940000000     0.699620000000     0.717120000000     0.0460614  
H33      H      0.503960000000     0.724190000000     0.640810000000     0.0514394  
H34      H      0.473630000000     0.782320000000     0.872050000000     0.0603414  
H35      H      0.556080000000     0.813970000000     0.794430000000     0.0267253  
H36      H      0.480390000000     0.639920000000     0.719830000000     0.0597854  
H37      H      0.562920000000     0.723510000000     0.704060000000     0.0420464  
H38      H      0.425220000000     0.314230000000     0.715590000000     0.0584425  
H39      H      0.446280000000     0.214070000000     0.799810000000     0.0508227  
H40      H      0.535820000000     0.144080000000     0.762980000000     0.0561069  
H41      H      0.487510000000     0.374550000000     0.712110000000     0.0750895  
H42      H      0.564820000000     0.300470000000     0.667010000000     0.0341889  
H43      H      0.516900000000     0.221960000000     0.850140000000     0.0453992  
H44      H      0.588400000000     0.212620000000     0.756800000000     0.0377312  
H45      H      0.705170000000     0.312810000000     0.549800000000     0.0700266  
H46      H      0.795190000000     0.221490000000     0.568480000000     0.0428937  
H47      H      0.773730000000     0.131880000000     0.497100000000     0.0654709  
H48      H      0.716050000000     0.365480000000     0.481260000000     0.0778848  
H49      H      0.701950000000     0.274380000000     0.407010000000     0.0236314  
H50      H      0.858650000000     0.215950000000     0.509910000000     0.0649903  
H51      H      0.783040000000     0.181570000000     0.426420000000     0.0558198  
H52      H      0.797930000000     0.774280000000     0.581350000000     0.0635306  
H53      H      0.707390000000     0.686700000000     0.567920000000     0.046945   
H54      H      0.632580000000     0.718830000000     0.482900000000     0.0585424  
H55      H      0.863220000000     0.775480000000     0.524350000000     0.0730795  
H56      H      0.790060000000     0.808360000000     0.437310000000     0.0334972  
H57      H      0.713430000000     0.631880000000     0.500630000000     0.055981   
H58      H      0.695750000000     0.719250000000     0.423930000000     0.0430115  
H59      H      0.260950000000     0.324760000000     0.404840000000     0.0563323  
H60      H      0.181840000000     0.227190000000     0.404740000000     0.037557   
H61      H      0.215430000000     0.134370000000     0.467530000000     0.0618915  
H62      H      0.274200000000     0.367030000000     0.479130000000     0.0749259  
H63      H      0.329050000000     0.282210000000     0.528730000000     0.0419706  
H64      H      0.129420000000     0.217450000000     0.472880000000     0.0667942  
H65      H      0.218690000000     0.180980000000     0.540590000000     0.055758   
H66      H      0.207390000000     0.797450000000     0.573500000000     0.0558636  
H67      H      0.298270000000     0.707060000000     0.573140000000     0.042258   
H68      H      0.276610000000     0.632420000000     0.484710000000     0.0612759  
H69      H      0.216040000000     0.864220000000     0.518510000000     0.0754604  
H70      H      0.203640000000     0.789050000000     0.426040000000     0.0343232  
H71      H      0.361030000000     0.713530000000     0.513540000000     0.0582559  
H72      H      0.284130000000     0.695770000000     0.426070000000     0.0493929  
H73      H      0.763230000000     0.403010000000     0.188140000000     0.0596983  
H74      H      0.677610000000     0.417420000000     0.279930000000     0.0437965  
H75      H      0.716730000000     0.492040000000     0.360470000000     0.0515477  
H76      H      0.770340000000     0.465400000000     0.128290000000     0.066987   
H77      H      0.813610000000     0.542060000000     0.205480000000     0.0285895  
H78      H      0.629020000000     0.489880000000     0.278760000000     0.0483577  
H79      H      0.720730000000     0.557750000000     0.304030000000     0.0400266  
H80      H      0.292600000000     0.414920000000     0.277950000000     0.054043   
H81      H      0.202470000000     0.422800000000     0.188640000000     0.0372038  
H82      H      0.129120000000     0.510650000000     0.216830000000     0.0486056  
H83      H      0.359940000000     0.469580000000     0.273120000000     0.0687021  
H84      H      0.287330000000     0.562620000000     0.294340000000     0.0297322  
H85      H      0.209310000000     0.486840000000     0.130190000000     0.0568307  
H86      H      0.192570000000     0.569480000000     0.212400000000     0.0438176  
H87      H      0.283030000000     0.421880000000     0.692690000000     0.0571641  
H88      H      0.192510000000     0.423210000000     0.782710000000     0.0375251  
H89      H      0.215860000000     0.509550000000     0.859490000000     0.0524466  
H90      H      0.277000000000     0.480150000000     0.628530000000     0.0710244  
H91      H      0.295030000000     0.569550000000     0.705430000000     0.0269277  
H92      H      0.131560000000     0.485090000000     0.777610000000     0.0458823  
H93      H      0.210810000000     0.570230000000     0.797890000000     0.0425215  
H94      H      0.690070000000     0.413660000000     0.720300000000     0.0587846  
H95      H      0.781440000000     0.424880000000     0.808600000000     0.0400705  
H96      H      0.859620000000     0.505870000000     0.774790000000     0.0482039  
H97      H      0.627670000000     0.474080000000     0.718430000000     0.0705591  
H98      H      0.704590000000     0.557530000000     0.684910000000     0.0294288  
H99      H      0.777420000000     0.494000000000     0.861390000000     0.0474248  
H100     H      0.799570000000     0.568400000000     0.773410000000     0.0498681  
H101     H      0.767000000000     0.689840000000     0.090310000000     0.0577816  
H102     H      0.684580000000     0.784890000000     0.068700000000     0.037294   
H103     H      0.720820000000     0.857380000000     0.982660000000     0.044634   
H104     H      0.773520000000     0.626990000000     0.031030000000     0.0654324  
H105     H      0.820180000000     0.699160000000     0.952430000000     0.0420945  
H106     H      0.633720000000     0.778110000000     0.998440000000     0.0409922  
H107     H      0.726220000000     0.791560000000     0.926590000000     0.0469618  
H108     H      0.781290000000     0.296970000000     0.920350000000     0.0547575  
H109     H      0.689910000000     0.207870000000     0.916040000000     0.0367682  
H110     H      0.712500000000     0.129150000000     0.000130000000     0.0414163  
H111     H      0.772080000000     0.362460000000     0.976730000000     0.065614   
H112     H      0.782320000000     0.284310000000     0.067550000000     0.0279089  
H113     H      0.627080000000     0.211860000000     0.975750000000     0.0419825  
H114     H      0.702950000000     0.188700000000     0.062380000000     0.0373129  
H115     H      0.201820000000     0.722390000000     0.086550000000     0.0543459  
H116     H      0.291030000000     0.810590000000     0.073030000000     0.0379717  
H117     H      0.362030000000     0.778980000000     0.984570000000     0.0442944  
H118     H      0.132420000000     0.725000000000     0.034870000000     0.0669725  
H119     H      0.201040000000     0.698330000000     0.940500000000     0.0273146  
H120     H      0.282750000000     0.867420000000     0.007580000000     0.0420822  
H121     H      0.297090000000     0.782300000000     0.927740000000     0.0385765  
H122     H      0.213040000000     0.303070000000     0.073260000000     0.0515344  
H123     H      0.300320000000     0.209970000000     0.060070000000     0.0373625  
H124     H      0.269780000000     0.137770000000     0.971160000000     0.0447294  
H125     H      0.214480000000     0.368830000000     0.016550000000     0.0658877  
H126     H      0.184800000000     0.295300000000     0.928210000000     0.0231019  
H127     H      0.356280000000     0.216750000000     0.993890000000     0.0417493  
H128     H      0.269210000000     0.203930000000     0.915370000000     0.0360178  
H129     H      0.763220000000     0.927580000000     0.664440000000     0.0736634  
H130     H      0.679740000000     0.936360000000     0.769910000000     0.0487518  
H131     H      0.719670000000     0.004380000000     0.856910000000     0.0424777  
H132     H      0.779460000000     0.003850000000     0.626460000000     0.0759374  
H133     H      0.839800000000     0.044970000000     0.710990000000     0.0295012  
H134     H      0.635950000000     0.011790000000     0.774420000000     0.0519328  
H135     H      0.732900000000     0.071290000000     0.803130000000     0.0363719  
H136     H      0.264550000000     0.102580000000     0.809940000000     0.055976   
H137     H      0.184050000000     0.082920000000     0.715240000000     0.0445877  
H138     H      0.218630000000     0.001360000000     0.637690000000     0.0523281  
H139     H      0.276580000000     0.038950000000     0.867440000000     0.0589343  
H140     H      0.329600000000     0.969980000000     0.792470000000     0.0360106  
H141     H      0.133410000000     0.012030000000     0.719030000000     0.0502197  
H142     H      0.225310000000     0.940790000000     0.699340000000     0.0405907  
H143     H      0.188610000000     0.072370000000     0.283460000000     0.0540355  
H144     H      0.281920000000     0.063940000000     0.194730000000     0.0460923  
H145     H      0.354750000000     0.973330000000     0.221180000000     0.0561997  
H146     H      0.124230000000     0.014160000000     0.279280000000     0.0776135  
H147     H      0.199750000000     0.925550000000     0.303620000000     0.035555   
H148     H      0.275300000000     0.999640000000     0.136410000000     0.0452281  
H149     H      0.288830000000     0.917400000000     0.220270000000     0.0379056  
H150     H      0.806920000000     0.933230000000     0.281330000000     0.0647957  
H151     H      0.718920000000     0.916380000000     0.186460000000     0.0388124  
H152     H      0.626770000000     0.980830000000     0.215160000000     0.0443321  
H153     H      0.858950000000     0.002920000000     0.274450000000     0.075645   
H154     H      0.765420000000     0.075670000000     0.288080000000     0.022354   
H155     H      0.712060000000     0.980990000000     0.128810000000     0.0421334  
H156     H      0.671040000000     0.055420000000     0.208490000000     0.0346601  
H157     H      0.101740000000     0.187180000000     0.733320000000     0.0572905  
H158     H      0.084390000000     0.281230000000     0.813310000000     0.0443462  
H159     H      0.009440000000     0.361970000000     0.774660000000     0.0475229  
H160     H      0.038640000000     0.128800000000     0.722000000000     0.0660065  
H161     H      0.969010000000     0.204540000000     0.669200000000     0.0286609  
H162     H      0.012160000000     0.280920000000     0.861840000000     0.0618937  
H163     H      0.944530000000     0.304540000000     0.769650000000     0.0403748  
H164     H      0.986240000000     0.630170000000     0.778760000000     0.061576   
H165     H      0.937890000000     0.780090000000     0.681090000000     0.0682639  
H166     H      0.016230000000     0.861580000000     0.719810000000     0.0612968  
H167     H      0.060910000000     0.673650000000     0.775030000000     0.0451975  
H168     H      0.998590000000     0.714390000000     0.864650000000     0.0353088  
H169     H      0.011190000000     0.777960000000     0.634980000000     0.0592705  
H170     H      0.076900000000     0.800900000000     0.730440000000     0.0373438  
H171     H      0.937180000000     0.783880000000     0.301760000000     0.0612997  
H172     H      0.946540000000     0.691530000000     0.208190000000     0.0529203  
H173     H      0.032590000000     0.723710000000     0.134270000000     0.0573997  
H174     H      0.995950000000     0.780030000000     0.365360000000     0.0816656  
H175     H      0.083410000000     0.804180000000     0.288710000000     0.0336067  
H176     H      0.013790000000     0.636710000000     0.215200000000     0.0543794  
H177     H      0.091140000000     0.723520000000     0.197730000000     0.0391379  
H178     H      0.896220000000     0.201640000000     0.264520000000     0.0608662  
H179     H      0.921410000000     0.292480000000     0.179710000000     0.0637752  
H180     H      0.008840000000     0.362500000000     0.218590000000     0.0578612  
H181     H      0.950080000000     0.133740000000     0.270030000000     0.0699131  
H182     H      0.037140000000     0.202710000000     0.311180000000     0.0236212  
H183     H      0.992850000000     0.282780000000     0.130750000000     0.0689063  
H184     H      0.063150000000     0.295400000000     0.223660000000     0.029829   
N1       N      0.486770000000     0.186410000000     0.281940000000    -0.191985   
N2       N      0.469620000000     0.287710000000     0.189880000000    -0.183757   
N3       N      0.516760000000     0.783190000000     0.305430000000    -0.19391    
N4       N      0.491800000000     0.692740000000     0.205160000000    -0.180372   
N5       N      0.500080000000     0.804780000000     0.709170000000    -0.189952   
N6       N      0.475000000000     0.705650000000     0.801030000000    -0.181841   
N7       N      0.515260000000     0.212220000000     0.685170000000    -0.189767   
N8       N      0.496010000000     0.302700000000     0.787310000000    -0.185295   
N9       N      0.696130000000     0.200420000000     0.477680000000    -0.194688   
N10      N      0.792360000000     0.296240000000     0.498920000000    -0.178945   
N11      N      0.702070000000     0.797930000000     0.489400000000    -0.19251    
N12      N      0.793260000000     0.698350000000     0.513610000000    -0.179074   
N13      N      0.295070000000     0.201260000000     0.475540000000    -0.19026    
N14      N      0.196420000000     0.297670000000     0.477410000000    -0.183236   
N15      N      0.197990000000     0.702780000000     0.481440000000    -0.191697   
N16      N      0.293910000000     0.793960000000     0.518980000000    -0.177435   
N17      N      0.795380000000     0.488490000000     0.291120000000    -0.192327   
N18      N      0.694070000000     0.476940000000     0.198540000000    -0.180631   
N19      N      0.199710000000     0.509020000000     0.294970000000    -0.195352   
N20      N      0.289590000000     0.476030000000     0.196060000000    -0.180796   
N21      N      0.295360000000     0.512390000000     0.790590000000    -0.195213   
N22      N      0.198960000000     0.479910000000     0.697850000000    -0.181265   
N23      N      0.790550000000     0.502140000000     0.695740000000    -0.189242   
N24      N      0.697450000000     0.481920000000     0.795530000000    -0.181383   
N25      N      0.799810000000     0.789220000000     0.997750000000    -0.186742   
N26      N      0.697790000000     0.697580000000     0.016650000000    -0.179465   
N27      N      0.789960000000     0.200020000000     0.009320000000    -0.193159   
N28      N      0.694240000000     0.292330000000     0.973860000000    -0.182131   
N29      N      0.290870000000     0.701120000000     0.990250000000    -0.193579   
N30      N      0.202820000000     0.801690000000     0.022120000000    -0.18287    
N31      N      0.191120000000     0.207720000000     0.981700000000    -0.198223   
N32      N      0.290850000000     0.297540000000     0.007550000000    -0.187934   
N33      N      0.799830000000     0.994670000000     0.790570000000    -0.191113   
N34      N      0.701050000000     0.001450000000     0.693940000000    -0.180272   
N35      N      0.298960000000     0.012040000000     0.704120000000    -0.187476   
N36      N      0.199640000000     0.025710000000     0.798590000000    -0.183246   
N37      N      0.285960000000     0.981330000000     0.300450000000    -0.191445   
N38      N      0.194780000000     0.010550000000     0.202390000000    -0.185132   
N39      N      0.694300000000     0.001700000000     0.292580000000    -0.196997   
N40      N      0.791250000000     0.988070000000     0.196520000000    -0.182062   
N41      N      0.014760000000     0.292690000000     0.696070000000    -0.191886   
N42      N      0.024300000000     0.199840000000     0.797130000000    -0.181429   
N43      N      0.001570000000     0.795010000000     0.799160000000    -0.189849   
N44      N      0.996150000000     0.697750000000     0.699830000000    -0.17523    
N45      N      0.025610000000     0.802430000000     0.204140000000    -0.192363   
N46      N      0.999280000000     0.702690000000     0.294990000000    -0.179702   
N47      N      0.991060000000     0.293680000000     0.296220000000    -0.195749   
N48      N      0.970150000000     0.203530000000     0.194860000000    -0.183233   
O1       O      0.985210000000     0.175300000000     0.086980000000    -0.616556   
O2       O      0.009370000000     0.827310000000     0.094840000000    -0.551046   
O3       O      0.899980000000     0.000880000000     0.169800000000    -0.606339   
O4       O      0.085930000000     0.004820000000     0.172670000000    -0.615989   
O5       O      0.169200000000     0.004170000000     0.092940000000    -0.632734   
O6       O      0.819480000000     0.994080000000     0.087650000000    -0.567527   
O7       O      0.009460000000     0.910700000000     0.173610000000    -0.594173   
O8       O      0.981820000000     0.094240000000     0.168880000000    -0.629395   
O9       O      0.061100000000     0.939380000000     0.063300000000    -1.4817     
O10      O      0.929590000000     0.062410000000     0.059710000000    -1.47191    
O11      O      0.924240000000     0.924370000000     0.063650000000    -1.05207    
O12      O      0.059730000000     0.069130000000     0.064170000000    -1.64705    
O13      O      0.997900000000     0.823670000000     0.907750000000    -0.558806   
O14      O      0.003910000000     0.174320000000     0.904730000000    -0.601658   
O15      O      0.824550000000     0.900260000000     0.994390000000    -0.554029   
O16      O      0.174450000000     0.911180000000     0.010760000000    -0.610626   
O17      O      0.167290000000     0.097440000000     0.992810000000    -0.629821   
O18      O      0.819550000000     0.089950000000     0.001470000000    -0.55854    
O19      O      0.907970000000     0.996100000000     0.822380000000    -0.559573   
O20      O      0.091970000000     0.006440000000     0.825220000000    -0.571341   
O21      O      0.824080000000     0.993080000000     0.901020000000    -0.562359   
O22      O      0.172140000000     0.014300000000     0.907470000000    -0.609976   
O23      O      0.908630000000     0.821760000000     0.998180000000    -0.538157   
O24      O      0.899440000000     0.172420000000     0.002280000000    -0.598659   
O25      O      0.083070000000     0.175560000000     0.990440000000    -0.609176   
O26      O      0.094340000000     0.827950000000     0.008150000000    -0.570114   
O27      O      0.003560000000     0.904590000000     0.825620000000    -0.563959   
O28      O      0.007980000000     0.091500000000     0.824700000000    -0.565626   
O29      O      0.059390000000     0.064070000000     0.935870000000    -1.4952     
O30      O      0.935920000000     0.933430000000     0.934390000000    -1.36007    
O31      O      0.922260000000     0.062900000000     0.922250000000    -1.06597    
O32      O      0.066600000000     0.926550000000     0.926920000000    -1.06809    
O33      O      0.992000000000     0.323890000000     0.404580000000    -0.616154   
O34      O      0.997420000000     0.673010000000     0.403710000000    -0.560691   
O35      O      0.904530000000     0.492670000000     0.320620000000    -0.599482   
O36      O      0.089570000000     0.504200000000     0.322370000000    -0.619369   
O37      O      0.169850000000     0.504640000000     0.404160000000    -0.602199   
O38      O      0.822770000000     0.492620000000     0.400950000000    -0.563902   
O39      O      0.002430000000     0.592370000000     0.321340000000    -0.600104   
O40      O      0.992800000000     0.404540000000     0.322790000000    -0.608404   
O41      O      0.059810000000     0.562120000000     0.432640000000    -1.46879    
O42      O      0.932880000000     0.433640000000     0.431170000000    -1.46105    
O43      O      0.922310000000     0.572100000000     0.430140000000    -1.05552    
O44      O      0.062190000000     0.432640000000     0.429490000000    -1.63879    
O45      O      0.993130000000     0.671620000000     0.590380000000    -0.556601   
O46      O      0.006680000000     0.321910000000     0.587060000000    -0.59045    
O47      O      0.820740000000     0.589570000000     0.500310000000    -0.56112    
O48      O      0.170800000000     0.592430000000     0.488330000000    -0.597123   
O49      O      0.168900000000     0.405720000000     0.494430000000    -0.619772   
O50      O      0.821750000000     0.404830000000     0.493380000000    -0.57014    
O51      O      0.901380000000     0.498530000000     0.669660000000    -0.555628   
O52      O      0.089680000000     0.490010000000     0.670520000000    -0.565907   
O53      O      0.821670000000     0.500970000000     0.587250000000    -0.544108   
O54      O      0.170870000000     0.488260000000     0.588830000000    -0.604482   
O55      O      0.902230000000     0.671350000000     0.503540000000    -0.560829   
O56      O      0.902470000000     0.322430000000     0.493650000000    -0.589392   
O57      O      0.087810000000     0.323400000000     0.493260000000    -0.608298   
O58      O      0.088880000000     0.672850000000     0.491300000000    -0.55213    
O59      O      0.996630000000     0.588900000000     0.670970000000    -0.574525   
O60      O      0.003320000000     0.402300000000     0.669040000000    -0.574262   
O61      O      0.060460000000     0.433500000000     0.558730000000    -1.4655     
O62      O      0.932960000000     0.560070000000     0.559550000000    -1.37465    
O63      O      0.922610000000     0.431030000000     0.569170000000    -1.06632    
O64      O      0.062150000000     0.571270000000     0.570120000000    -1.07065    
O65      O      0.666850000000     0.993900000000     0.401470000000    -0.610356   
O66      O      0.318490000000     0.990860000000     0.408200000000    -0.55179    
O67      O      0.505000000000     0.893900000000     0.327320000000    -0.613479   
O68      O      0.487130000000     0.078140000000     0.316770000000    -0.609198   
O69      O      0.488310000000     0.164320000000     0.392910000000    -0.601519   
O70      O      0.503580000000     0.817320000000     0.412700000000    -0.553903   
O71      O      0.396740000000     0.988990000000     0.324540000000    -0.595149   
O72      O      0.585130000000     0.988980000000     0.321160000000    -0.610745   
O73      O      0.430260000000     0.056910000000     0.429980000000    -1.45995    
O74      O      0.558420000000     0.930510000000     0.434750000000    -1.47298    
O75      O      0.421140000000     0.918640000000     0.436240000000    -1.05676    
O76      O      0.559090000000     0.059790000000     0.424920000000    -1.6635     
O77      O      0.323500000000     0.003030000000     0.593850000000    -0.551424   
O78      O      0.671370000000     0.006720000000     0.585410000000    -0.603272   
O79      O      0.403560000000     0.821240000000     0.510230000000    -0.552703   
O80      O      0.403470000000     0.171730000000     0.482570000000    -0.603286   
O81      O      0.586650000000     0.171540000000     0.485330000000    -0.605796   
O82      O      0.591940000000     0.823720000000     0.498940000000    -0.556851   
O83      O      0.498860000000     0.913470000000     0.674880000000    -0.536623   
O84      O      0.505570000000     0.101250000000     0.663470000000    -0.553935   
O85      O      0.497190000000     0.827530000000     0.598690000000    -0.566448   
O86      O      0.507360000000     0.177440000000     0.577620000000    -0.581807   
O87      O      0.322010000000     0.903210000000     0.509940000000    -0.551292   
O88      O      0.670570000000     0.906600000000     0.486200000000    -0.596634   
O89      O      0.668450000000     0.091150000000     0.490690000000    -0.618492   
O90      O      0.321620000000     0.090890000000     0.486850000000    -0.550113   
O91      O      0.407260000000     0.005080000000     0.672440000000    -0.54223    
O92      O      0.591640000000     0.008590000000     0.668440000000    -0.568679   
O93      O      0.560600000000     0.065490000000     0.554610000000    -1.47995    
O94      O      0.434200000000     0.936760000000     0.564290000000    -1.3647     
O95      O      0.563740000000     0.927830000000     0.571870000000    -1.06135    
O96      O      0.423320000000     0.067360000000     0.567310000000    -1.06039    
O97      O      0.400020000000     0.323390000000     0.995920000000    -0.631417   
O98      O      0.400650000000     0.672780000000     0.996890000000    -0.561173   
O99      O      0.317100000000     0.487400000000     0.086810000000    -0.593765   
O100     O      0.321150000000     0.504990000000     0.900960000000    -0.614552   
O101     O      0.404040000000     0.507890000000     0.821950000000    -0.609689   
O102     O      0.398510000000     0.485280000000     0.168250000000    -0.568617   
O103     O      0.319960000000     0.591420000000     0.988790000000    -0.601962   
O104     O      0.319620000000     0.406260000000     0.999270000000    -0.63566    
O105     O      0.431130000000     0.563130000000     0.934120000000    -1.47511    
O106     O      0.429240000000     0.431770000000     0.055900000000    -1.48483    
O107     O      0.427340000000     0.568760000000     0.071380000000    -1.05822    
O108     O      0.427320000000     0.433250000000     0.927130000000    -1.64347    
O109     O      0.588310000000     0.671550000000     0.005150000000    -0.560044   
O110     O      0.584710000000     0.319950000000     0.981870000000    -0.611702   
O111     O      0.493330000000     0.584130000000     0.173340000000    -0.568652   
O112     O      0.486350000000     0.595640000000     0.824810000000    -0.604732   
O113     O      0.496790000000     0.411000000000     0.819490000000    -0.621458   
O114     O      0.484620000000     0.397230000000     0.166030000000    -0.57085    
O115     O      0.666870000000     0.489260000000     0.090220000000    -0.564958   
O116     O      0.669670000000     0.493080000000     0.904390000000    -0.565827   
O117     O      0.585070000000     0.489330000000     0.171390000000    -0.567349   
O118     O      0.588340000000     0.491870000000     0.822910000000    -0.607377   
O119     O      0.495480000000     0.668960000000     0.095060000000    -0.562976   
O120     O      0.480920000000     0.318350000000     0.081990000000    -0.611099   
O121     O      0.497030000000     0.325990000000     0.897560000000    -0.629457   
O122     O      0.487550000000     0.674770000000     0.908670000000    -0.568015   
O123     O      0.668870000000     0.588580000000     0.006350000000    -0.561342   
O124     O      0.666470000000     0.401320000000     0.987020000000    -0.562766   
O125     O      0.557010000000     0.434670000000     0.930800000000    -1.47801    
O126     O      0.557190000000     0.557830000000     0.062030000000    -1.36301    
O127     O      0.565970000000     0.427090000000     0.067500000000    -1.06508    
O128     O      0.568700000000     0.572750000000     0.933090000000    -1.0575     


