data_structure

_audit_creation_method RASPA-1.0
_audit_creation_date 2023-5-19
_audit_author_name 'Poobodin Mano'

_cell_length_a    32.8599
_cell_length_b    32.9162
_cell_length_c    32.8759
_cell_angle_alpha 90
_cell_angle_beta  90
_cell_angle_gamma 90
_cell_volume      35559.3

_symmetry_cell_setting          triclinic
_symmetry_space_group_name_Hall 'P 1'
_symmetry_space_group_name_H-M  'P 1'
_symmetry_Int_Tables_number     1

_symmetry_equiv_pos_as_xyz 'x,y,z'

loop_
_atom_site_label
_atom_site_type_symbol
_atom_site_fract_x
_atom_site_fract_y
_atom_site_fract_z
_atom_site_charge
Br1      Br     0.495390000000     0.191150000000     0.436500000000    -0.249176   
Br2      Br     0.517380000000     0.934750000000     0.304100000000    -0.245825   
Br3      Br     0.471970000000     0.929940000000     0.687220000000    -0.225105   
Br4      Br     0.498490000000     0.059350000000     0.691870000000    -0.22609    
Br5      Br     0.688110000000     0.064000000000     0.523640000000    -0.217798   
Br6      Br     0.806700000000     0.562140000000     0.474320000000    -0.222443   
Br7      Br     0.304630000000     0.061070000000     0.485800000000    -0.21923    
Br8      Br     0.434060000000     0.805330000000     0.514490000000    -0.242034   
Br9      Br     0.933660000000     0.499290000000     0.303760000000    -0.246256   
Br10     Br     0.433680000000     0.487190000000     0.190610000000    -0.250086   
Br11     Br     0.190890000000     0.495600000000     0.561520000000    -0.245448   
Br12     Br     0.806370000000     0.476260000000     0.562790000000    -0.224025   
Br13     Br     0.806760000000     0.932540000000     0.978710000000    -0.227665   
Br14     Br     0.804520000000     0.060740000000     0.000070000000    -0.2215     
Br15     Br     0.191790000000     0.933380000000     0.000580000000    -0.244061   
Br16     Br     0.433960000000     0.304450000000     0.006150000000    -0.242904   
Br17     Br     0.933090000000     0.970030000000     0.806710000000    -0.22611    
Br18     Br     0.307220000000     0.967830000000     0.563070000000    -0.221528   
Br19     Br     0.061410000000     0.019710000000     0.189380000000    -0.220095   
Br20     Br     0.691110000000     0.984920000000     0.434910000000    -0.22504    
Br21     Br     0.016360000000     0.057970000000     0.803920000000    -0.213842   
Br22     Br     0.984210000000     0.803300000000     0.937650000000    -0.248923   
Br23     Br     0.978990000000     0.934870000000     0.190830000000    -0.229689   
Br24     Br     0.000010000000     0.191850000000     0.058050000000    -0.239601   
C1       C      0.992620000000     0.097700000000     0.092250000000     0.513981   
C2       C      0.002110000000     0.903050000000     0.099050000000     0.519703   
C3       C      0.899220000000     0.004770000000     0.094610000000     0.509809   
C4       C      0.093880000000     0.999090000000     0.096770000000     0.5106     
C5       C      0.997190000000     0.896720000000     0.903320000000     0.50947    
C6       C      0.005070000000     0.092550000000     0.897600000000     0.517983   
C7       C      0.900100000000     0.899830000000     0.996570000000     0.510255   
C8       C      0.096860000000     0.901180000000     0.007740000000     0.519899   
C9       C      0.094280000000     0.095460000000     0.992670000000     0.505809   
C10      C      0.899320000000     0.094610000000     0.999900000000     0.515814   
C11      C      0.901500000000     0.992350000000     0.899090000000     0.50985    
C12      C      0.097240000000     0.000140000000     0.901860000000     0.5163     
C13      C      0.994460000000     0.399900000000     0.400130000000     0.505982   
C14      C      0.003420000000     0.594410000000     0.399420000000     0.51098    
C15      C      0.901070000000     0.490660000000     0.398370000000     0.523861   
C16      C      0.094870000000     0.501600000000     0.400230000000     0.50916    
C17      C      0.994220000000     0.594660000000     0.595100000000     0.497597   
C18      C      0.004150000000     0.399260000000     0.594910000000     0.50989    
C19      C      0.898840000000     0.593830000000     0.497520000000     0.511497   
C20      C      0.094910000000     0.595100000000     0.492300000000     0.511535   
C21      C      0.095600000000     0.400710000000     0.500410000000     0.507597   
C22      C      0.900200000000     0.399060000000     0.491550000000     0.510978   
C23      C      0.898930000000     0.498060000000     0.594250000000     0.509291   
C24      C      0.095930000000     0.492010000000     0.594670000000     0.521723   
C25      C      0.596810000000     0.996370000000     0.402030000000     0.516944   
C26      C      0.401940000000     0.003230000000     0.398480000000     0.509975   
C27      C      0.504840000000     0.901660000000     0.398170000000     0.520694   
C28      C      0.495360000000     0.096560000000     0.402390000000     0.516984   
C29      C      0.398840000000     0.993020000000     0.594130000000     0.510773   
C30      C      0.594490000000     0.001260000000     0.596780000000     0.517705   
C31      C      0.401310000000     0.898460000000     0.497280000000     0.511718   
C32      C      0.399290000000     0.094460000000     0.492800000000     0.519252   
C33      C      0.594890000000     0.095040000000     0.503690000000     0.517384   
C34      C      0.596890000000     0.900970000000     0.492880000000     0.512191   
C35      C      0.494950000000     0.898880000000     0.594780000000     0.5109     
C36      C      0.500800000000     0.093730000000     0.597330000000     0.521856   
C37      C      0.401140000000     0.398640000000     0.995080000000     0.516548   
C38      C      0.595760000000     0.400120000000     0.003690000000     0.511215   
C39      C      0.492790000000     0.399380000000     0.900620000000     0.511708   
C40      C      0.501320000000     0.399620000000     0.095180000000     0.508727   
C41      C      0.594800000000     0.595030000000     0.996130000000     0.498497   
C42      C      0.398400000000     0.593390000000     0.005480000000     0.509331   
C43      C      0.594980000000     0.500660000000     0.900600000000     0.499361   
C44      C      0.594650000000     0.490830000000     0.096290000000     0.513711   
C45      C      0.400820000000     0.499520000000     0.096500000000     0.520586   
C46      C      0.398690000000     0.490410000000     0.901730000000     0.511378   
C47      C      0.498530000000     0.594370000000     0.900210000000     0.49894    
C48      C      0.492080000000     0.594220000000     0.096490000000     0.511463   
C49      C      0.495060000000     0.197140000000     0.351340000000    -0.137109   
C50      C      0.502080000000     0.329590000000     0.113920000000     0.0885322  
C51      C      0.501670000000     0.380260000000     0.165120000000     0.0885567  
C52      C      0.501350000000     0.299050000000     0.143420000000    -0.0995273  
C53      C      0.521910000000     0.241490000000     0.212950000000    -0.0353563  
C54      C      0.520460000000     0.211580000000     0.243150000000    -0.0304092  
C55      C      0.498670000000     0.277190000000     0.216590000000    -0.00573799 
C56      C      0.500870000000     0.350480000000     0.195390000000    -0.0997249  
C57      C      0.495740000000     0.216670000000     0.277680000000    -0.0140314  
C58      C      0.494870000000     0.144130000000     0.301420000000    -0.111872   
C59      C      0.472170000000     0.252180000000     0.281080000000    -0.0301602  
C60      C      0.494660000000     0.115490000000     0.332740000000     0.0913944  
C61      C      0.494930000000     0.167980000000     0.382390000000     0.193584   
C62      C      0.473640000000     0.282060000000     0.250930000000    -0.0351234  
C63      C      0.500430000000     0.309270000000     0.184750000000     0.0554152  
C64      C      0.495110000000     0.185530000000     0.310500000000     0.073723   
C65      C      0.506750000000     0.850300000000     0.297800000000    -0.137532   
C66      C      0.489080000000     0.613000000000     0.166510000000     0.0904305  
C67      C      0.491740000000     0.664050000000     0.115740000000     0.0891247  
C68      C      0.489460000000     0.642500000000     0.197040000000    -0.101269   
C69      C      0.517060000000     0.709790000000     0.253920000000    -0.0348803  
C70      C      0.519750000000     0.740190000000     0.283490000000    -0.0304702  
C71      C      0.493320000000     0.715580000000     0.218790000000    -0.00689486 
C72      C      0.492210000000     0.694300000000     0.145490000000    -0.102558   
C73      C      0.498860000000     0.777110000000     0.278550000000    -0.013806   
C74      C      0.500820000000     0.800860000000     0.350970000000    -0.11089    
C75      C      0.474830000000     0.782770000000     0.243630000000    -0.0307684  
C76      C      0.502770000000     0.832120000000     0.379540000000     0.0947154  
C77      C      0.508890000000     0.881280000000     0.326950000000     0.197554   
C78      C      0.472060000000     0.752360000000     0.214130000000    -0.0348605  
C79      C      0.491410000000     0.683740000000     0.186750000000     0.0564486  
C80      C      0.502210000000     0.809790000000     0.309550000000     0.0748998  
C81      C      0.489600000000     0.846800000000     0.694480000000    -0.135309   
C82      C      0.501860000000     0.612360000000     0.830040000000     0.0880116  
C83      C      0.497610000000     0.664060000000     0.880010000000     0.0870258  
C84      C      0.502470000000     0.641390000000     0.799090000000    -0.102736   
C85      C      0.479560000000     0.707400000000     0.739090000000    -0.034581   
C86      C      0.479170000000     0.737070000000     0.708630000000    -0.0312684  
C87      C      0.500410000000     0.714100000000     0.775910000000    -0.00740179 
C88      C      0.497920000000     0.693910000000     0.849750000000    -0.101941   
C89      C      0.499330000000     0.774250000000     0.714410000000    -0.012905   
C90      C      0.502320000000     0.798060000000     0.641840000000    -0.108128   
C91      C      0.520530000000     0.780810000000     0.750970000000    -0.0313873  
C92      C      0.500760000000     0.829370000000     0.613180000000     0.0964867  
C93      C      0.487590000000     0.877670000000     0.665290000000     0.196261   
C94      C      0.521160000000     0.751080000000     0.781290000000    -0.0344449  
C95      C      0.500320000000     0.682780000000     0.808640000000     0.0558092  
C96      C      0.497280000000     0.806710000000     0.683090000000     0.0742801  
C97      C      0.499970000000     0.144330000000     0.698060000000    -0.136453   
C98      C      0.492120000000     0.380770000000     0.830560000000     0.0894926  
C99      C      0.490740000000     0.329610000000     0.881290000000     0.0904148  
C100     C      0.492850000000     0.351340000000     0.800010000000    -0.10325    
C101     C      0.472880000000     0.282190000000     0.742040000000    -0.0351211  
C102     C      0.475070000000     0.252190000000     0.712040000000    -0.0307814  
C103     C      0.495290000000     0.278370000000     0.778280000000    -0.00715309 
C104     C      0.491480000000     0.299400000000     0.851500000000    -0.101701   
C105     C      0.499690000000     0.217720000000     0.717640000000    -0.0139739  
C106     C      0.502700000000     0.194320000000     0.645130000000    -0.112337   
C107     C      0.522400000000     0.214130000000     0.753690000000    -0.0305602  
C108     C      0.503140000000     0.163130000000     0.616420000000     0.0959743  
C109     C      0.500340000000     0.113430000000     0.668830000000     0.194687   
C110     C      0.520220000000     0.244100000000     0.783660000000    -0.034645   
C111     C      0.492960000000     0.310090000000     0.810300000000     0.0567971  
C112     C      0.500950000000     0.185100000000     0.686490000000     0.0750666  
C113     C      0.694820000000     0.147010000000     0.505590000000    -0.136124   
C114     C      0.830120000000     0.381070000000     0.487000000000     0.0921166  
C115     C      0.880120000000     0.329350000000     0.490920000000     0.0906297  
C116     C      0.799140000000     0.352090000000     0.486680000000    -0.0992628  
C117     C      0.739880000000     0.286560000000     0.512450000000    -0.0346858  
C118     C      0.709460000000     0.256920000000     0.514440000000    -0.03013    
C119     C      0.775890000000     0.279530000000     0.490330000000    -0.00621447 
C120     C      0.849820000000     0.299520000000     0.490840000000    -0.102256   
C121     C      0.714450000000     0.219480000000     0.494570000000    -0.0131641  
C122     C      0.641740000000     0.195850000000     0.495190000000    -0.109798   
C123     C      0.750170000000     0.212620000000     0.472040000000    -0.0307389  
C124     C      0.613120000000     0.164610000000     0.498130000000     0.0914296  
C125     C      0.665670000000     0.116210000000     0.508900000000     0.195745   
C126     C      0.780490000000     0.242300000000     0.469880000000    -0.0344429  
C127     C      0.808690000000     0.310720000000     0.489060000000     0.0569018  
C128     C      0.683180000000     0.187100000000     0.498260000000     0.0739881  
C129     C      0.799040000000     0.645590000000     0.490600000000    -0.136404   
C130     C      0.666980000000     0.882410000000     0.494910000000     0.0926951  
C131     C      0.616470000000     0.831420000000     0.488480000000     0.0904523  
C132     C      0.697540000000     0.852950000000     0.495590000000    -0.0993715  
C133     C      0.757050000000     0.785420000000     0.475210000000    -0.0352593  
C134     C      0.786870000000     0.755170000000     0.476700000000    -0.0301689  
C135     C      0.719340000000     0.779820000000     0.494680000000    -0.00614193 
C136     C      0.646260000000     0.801210000000     0.488870000000    -0.10139    
C137     C      0.779540000000     0.718610000000     0.497510000000    -0.0142531  
C138     C      0.851480000000     0.694360000000     0.504320000000    -0.112654   
C139     C      0.742040000000     0.713140000000     0.517260000000    -0.0305051  
C140     C      0.880020000000     0.663010000000     0.504000000000     0.0939669  
C141     C      0.828190000000     0.614600000000     0.489890000000     0.197011   
C142     C      0.712330000000     0.743430000000     0.515970000000    -0.0348813  
C143     C      0.687370000000     0.811730000000     0.492860000000     0.0567976  
C144     C      0.810450000000     0.685790000000     0.497770000000     0.0751049  
C145     C      0.298940000000     0.146010000000     0.489640000000    -0.134939   
C146     C      0.165870000000     0.382460000000     0.501020000000     0.0873114  
C147     C      0.115440000000     0.330990000000     0.499960000000     0.0867184  
C148     C      0.196660000000     0.353210000000     0.499970000000    -0.100805   
C149     C      0.254360000000     0.283420000000     0.519890000000    -0.0350704  
C150     C      0.284380000000     0.253350000000     0.518000000000    -0.0302775  
C151     C      0.218940000000     0.280370000000     0.496090000000    -0.00678701 
C152     C      0.145460000000     0.300990000000     0.498730000000    -0.103087   
C153     C      0.279670000000     0.219580000000     0.492220000000    -0.0131524  
C154     C      0.352250000000     0.195560000000     0.492460000000    -0.10962    
C155     C      0.244500000000     0.216900000000     0.467990000000    -0.0304444  
C156     C      0.380770000000     0.164130000000     0.492320000000     0.0959701  
C157     C      0.327990000000     0.114880000000     0.489430000000     0.19544    
C158     C      0.214490000000     0.246870000000     0.469950000000    -0.0349378  
C159     C      0.186650000000     0.311910000000     0.498440000000     0.0555064  
C160     C      0.310750000000     0.186710000000     0.491320000000     0.0744721  
C161     C      0.349960000000     0.798290000000     0.501050000000    -0.135813   
C162     C      0.113350000000     0.665100000000     0.488610000000     0.0893976  
C163     C      0.164770000000     0.614660000000     0.491610000000     0.0914369  
C164     C      0.142760000000     0.695750000000     0.488280000000    -0.102577   
C165     C      0.213800000000     0.751540000000     0.465660000000    -0.0348775  
C166     C      0.244000000000     0.781470000000     0.466860000000    -0.0304835  
C167     C      0.215720000000     0.717780000000     0.491760000000    -0.00690036 
C168     C      0.194910000000     0.644550000000     0.491710000000    -0.101663   
C169     C      0.276640000000     0.778410000000     0.494400000000    -0.0127572  
C170     C      0.300650000000     0.850830000000     0.490330000000    -0.107284   
C171     C      0.278080000000     0.744890000000     0.520910000000    -0.0300932  
C172     C      0.331930000000     0.879490000000     0.491340000000     0.0975925  
C173     C      0.380880000000     0.827520000000     0.502410000000     0.197552   
C174     C      0.248100000000     0.714880000000     0.519480000000    -0.0346686  
C175     C      0.184070000000     0.685650000000     0.490320000000     0.0569293  
C176     C      0.309430000000     0.809620000000     0.495170000000     0.0748147  
C177     C      0.849350000000     0.486630000000     0.298340000000    -0.137796   
C178     C      0.664500000000     0.487840000000     0.115790000000     0.0890628  
C179     C      0.612910000000     0.484090000000     0.166070000000     0.0914104  
C180     C      0.694550000000     0.485310000000     0.145710000000    -0.103162   
C181     C      0.709810000000     0.502890000000     0.255410000000    -0.0343372  
C182     C      0.739930000000     0.502570000000     0.285370000000    -0.0307717  
C183     C      0.715010000000     0.480870000000     0.219120000000    -0.00757973 
C184     C      0.642150000000     0.481470000000     0.196690000000    -0.10366    
C185     C      0.775950000000     0.480310000000     0.279670000000    -0.013499   
C186     C      0.800300000000     0.479950000000     0.351910000000    -0.109338   
C187     C      0.780890000000     0.457770000000     0.243690000000    -0.0312284  
C188     C      0.831740000000     0.482800000000     0.380260000000     0.097266   
C189     C      0.880470000000     0.489740000000     0.327220000000     0.19869    
C190     C      0.750750000000     0.458040000000     0.213740000000    -0.0347773  
C191     C      0.683540000000     0.482330000000     0.186760000000     0.0572358  
C192     C      0.808940000000     0.481890000000     0.310430000000     0.075389   
C193     C      0.349480000000     0.500120000000     0.196860000000    -0.138301   
C194     C      0.113280000000     0.505550000000     0.330240000000     0.0872808  
C195     C      0.164780000000     0.503230000000     0.380670000000     0.0866454  
C196     C      0.142580000000     0.507020000000     0.299560000000    -0.103073   
C197     C      0.210070000000     0.484770000000     0.240960000000    -0.0358466  
C198     C      0.240050000000     0.484750000000     0.210820000000    -0.0311187  
C199     C      0.215540000000     0.506970000000     0.277120000000    -0.00725363 
C200     C      0.194890000000     0.504530000000     0.350690000000    -0.102502   
C201     C      0.276270000000     0.506770000000     0.216240000000    -0.0148698  
C202     C      0.300090000000     0.507740000000     0.143760000000    -0.113755   
C203     C      0.281580000000     0.529330000000     0.252150000000    -0.0309297  
C204     C      0.331380000000     0.505600000000     0.115140000000     0.0922848  
C205     C      0.380430000000     0.497680000000     0.167720000000     0.194139   
C206     C      0.251540000000     0.529480000000     0.282220000000    -0.0353038  
C207     C      0.183980000000     0.506300000000     0.309520000000     0.0554841  
C208     C      0.308990000000     0.505180000000     0.185150000000     0.0741973  
C209     C      0.196090000000     0.489490000000     0.646430000000    -0.138413   
C210     C      0.328670000000     0.485160000000     0.883350000000     0.0900189  
C211     C      0.379120000000     0.488510000000     0.831920000000     0.0886983  
C212     C      0.297960000000     0.484010000000     0.853990000000    -0.104346   
C213     C      0.241400000000     0.461020000000     0.784030000000    -0.0356941  
C214     C      0.211390000000     0.461570000000     0.753830000000    -0.0313571  
C215     C      0.275780000000     0.486290000000     0.780980000000    -0.00792199 
C216     C      0.349180000000     0.487530000000     0.801810000000    -0.103523   
C217     C      0.215150000000     0.487420000000     0.720000000000    -0.0145404  
C218     C      0.142620000000     0.485770000000     0.695850000000    -0.112367   
C219     C      0.249250000000     0.513090000000     0.717350000000    -0.0312078  
C220     C      0.114170000000     0.487100000000     0.664320000000     0.0931334  
C221     C      0.167170000000     0.490880000000     0.615230000000     0.19734    
C222     C      0.279200000000     0.512490000000     0.747420000000    -0.0352108  
C223     C      0.308010000000     0.485650000000     0.812660000000     0.0565909  
C224     C      0.184130000000     0.487360000000     0.687090000000     0.0745469  
C225     C      0.798680000000     0.495330000000     0.645760000000    -0.135933   
C226     C      0.664940000000     0.505500000000     0.881960000000     0.0875284  
C227     C      0.614510000000     0.500870000000     0.830660000000     0.0874772  
C228     C      0.695580000000     0.506890000000     0.852560000000    -0.102606   
C229     C      0.755100000000     0.484970000000     0.785780000000    -0.0356799  
C230     C      0.785210000000     0.484840000000     0.755730000000    -0.0315966  
C231     C      0.718010000000     0.505430000000     0.779480000000    -0.00746266 
C232     C      0.644440000000     0.501940000000     0.800470000000    -0.102128   
C233     C      0.778850000000     0.504910000000     0.718560000000    -0.0141457  
C234     C      0.851270000000     0.508380000000     0.694580000000    -0.112172   
C235     C      0.741990000000     0.525660000000     0.712340000000    -0.0313652  
C236     C      0.880020000000     0.506190000000     0.663390000000     0.0925123  
C237     C      0.828020000000     0.492700000000     0.614970000000     0.196135   
C238     C      0.711980000000     0.526030000000     0.742470000000    -0.034978   
C239     C      0.685620000000     0.504880000000     0.811190000000     0.0554764  
C240     C      0.810030000000     0.503210000000     0.685890000000     0.0738066  
C241     C      0.799900000000     0.848490000000     0.990780000000    -0.134771   
C242     C      0.664940000000     0.613440000000     0.996590000000     0.0881131  
C243     C      0.614520000000     0.664820000000     0.993850000000     0.0871289  
C244     C      0.695710000000     0.642660000000     0.996660000000    -0.103789   
C245     C      0.754970000000     0.709670000000     0.974560000000    -0.0338434  
C246     C      0.785430000000     0.739340000000     0.975180000000    -0.0319195  
C247     C      0.718300000000     0.715500000000     0.995940000000    -0.012435   
C248     C      0.644590000000     0.694870000000     0.993720000000    -0.103168   
C249     C      0.779820000000     0.775610000000     0.996970000000    -0.0161362  
C250     C      0.852500000000     0.799040000000     0.000620000000    -0.102988   
C251     C      0.743360000000     0.781320000000     0.018600000000    -0.0274467  
C252     C      0.881260000000     0.830290000000     0.000280000000     0.0986521  
C253     C      0.829170000000     0.879350000000     0.990070000000     0.194812   
C254     C      0.713010000000     0.751610000000     0.018160000000    -0.0294337  
C255     C      0.685810000000     0.683990000000     0.995320000000     0.0569725  
C256     C      0.811240000000     0.808040000000     0.996270000000     0.0697855  
C257     C      0.798860000000     0.145690000000     0.002940000000    -0.135068   
C258     C      0.665960000000     0.382000000000     0.006290000000     0.0891939  
C259     C      0.615490000000     0.330530000000     0.006910000000     0.0906088  
C260     C      0.696720000000     0.352740000000     0.006980000000    -0.10273    
C261     C      0.754010000000     0.283540000000     0.030120000000    -0.0357319  
C262     C      0.784030000000     0.253440000000     0.029220000000    -0.0319293  
C263     C      0.718820000000     0.279860000000     0.006070000000    -0.00310315 
C264     C      0.645470000000     0.300520000000     0.007450000000    -0.102263   
C265     C      0.779490000000     0.219110000000     0.004200000000    -0.00898251 
C266     C      0.852090000000     0.195440000000     0.004290000000    -0.109477   
C267     C      0.744540000000     0.215800000000     0.979750000000    -0.0356519  
C268     C      0.880680000000     0.164120000000     0.003140000000     0.0953136  
C269     C      0.827950000000     0.114680000000     0.001730000000     0.194746   
C270     C      0.714540000000     0.245770000000     0.980730000000    -0.0393148  
C271     C      0.686640000000     0.311450000000     0.007110000000     0.0560607  
C272     C      0.810630000000     0.186410000000     0.003900000000     0.0733977  
C273     C      0.196830000000     0.848980000000     0.012240000000    -0.135964   
C274     C      0.328420000000     0.611520000000     0.012390000000     0.0898754  
C275     C      0.378650000000     0.663060000000     0.008940000000     0.0887036  
C276     C      0.297730000000     0.640750000000     0.015320000000    -0.102616   
C277     C      0.238660000000     0.708880000000     0.995240000000    -0.0393788  
C278     C      0.208940000000     0.739270000000     0.995790000000    -0.0358309  
C279     C      0.275310000000     0.713760000000     0.016800000000    -0.00298216 
C280     C      0.348720000000     0.693060000000     0.011790000000    -0.101942   
C281     C      0.215190000000     0.775330000000     0.017840000000    -0.00893895 
C282     C      0.143000000000     0.800290000000     0.018540000000    -0.109434   
C283     C      0.251510000000     0.779920000000     0.039980000000    -0.0318327  
C284     C      0.114790000000     0.831870000000     0.015870000000     0.0950083  
C285     C      0.168070000000     0.880280000000     0.009350000000     0.197107   
C286     C      0.281190000000     0.749500000000     0.039490000000    -0.0353498  
C287     C      0.307630000000     0.682130000000     0.014850000000     0.0556459  
C288     C      0.184570000000     0.808590000000     0.016590000000     0.0734597  
C289     C      0.349550000000     0.298410000000     0.994140000000    -0.137243   
C290     C      0.112540000000     0.165480000000     0.988280000000     0.0885933  
C291     C      0.164120000000     0.115290000000     0.991630000000     0.0873949  
C292     C      0.141830000000     0.196200000000     0.986890000000    -0.101349   
C293     C      0.209440000000     0.255020000000     0.009220000000    -0.0313712  
C294     C      0.239650000000     0.284950000000     0.009380000000    -0.0262021  
C295     C      0.214930000000     0.218700000000     0.987330000000    -0.0110046  
C296     C      0.194200000000     0.145260000000     0.990350000000    -0.102319   
C297     C      0.276110000000     0.279210000000     0.987780000000    -0.0192454  
C298     C      0.300260000000     0.351570000000     0.986960000000    -0.114324   
C299     C      0.281380000000     0.243150000000     0.965470000000    -0.0302182  
C300     C      0.331650000000     0.380070000000     0.989040000000     0.0913916  
C301     C      0.380630000000     0.327460000000     0.996460000000     0.189938   
C302     C      0.251150000000     0.213280000000     0.965210000000    -0.0348294  
C303     C      0.183270000000     0.186350000000     0.988060000000     0.0563121  
C304     C      0.309020000000     0.310180000000     0.989380000000     0.074034   
C305     C      0.849410000000     0.985970000000     0.799380000000    -0.135936   
C306     C      0.612740000000     0.004660000000     0.666930000000     0.0949639  
C307     C      0.664100000000     0.998400000000     0.616690000000     0.0929393  
C308     C      0.642050000000     0.004060000000     0.697700000000    -0.102966   
C309     C      0.714200000000     0.024800000000     0.752920000000    -0.0249115  
C310     C      0.744630000000     0.023210000000     0.782600000000    -0.0257219  
C311     C      0.714810000000     0.997810000000     0.719830000000    -0.0204674  
C312     C      0.694110000000     0.997380000000     0.646650000000    -0.109168   
C313     C      0.776150000000     0.994410000000     0.779920000000    -0.0175173  
C314     C      0.800680000000     0.999110000000     0.852020000000    -0.112594   
C315     C      0.776260000000     0.966990000000     0.747110000000    -0.0306153  
C316     C      0.832090000000     0.998110000000     0.880490000000     0.0933414  
C317     C      0.880480000000     0.984680000000     0.828500000000     0.198359   
C318     C      0.746030000000     0.968780000000     0.717360000000    -0.0296718  
C319     C      0.683240000000     0.000000000000     0.687700000000     0.0734257  
C320     C      0.809120000000     0.993230000000     0.810860000000     0.0775615  
C321     C      0.299270000000     0.985760000000     0.646320000000    -0.130224   
C322     C      0.167210000000     0.005470000000     0.883220000000     0.0917822  
C323     C      0.116980000000     0.996130000000     0.832300000000     0.085884   
C324     C      0.197890000000     0.005070000000     0.853790000000    -0.0926548  
C325     C      0.252210000000     0.025690000000     0.780990000000    -0.0287985  
C326     C      0.281760000000     0.024400000000     0.750430000000    -0.0258381  
C327     C      0.219910000000     0.997720000000     0.781090000000    -0.00994549 
C328     C      0.146850000000     0.995330000000     0.802200000000    -0.0960003  
C329     C      0.279750000000     0.994970000000     0.719460000000    -0.0141785  
C330     C      0.351680000000     0.000930000000     0.694740000000    -0.0874086  
C331     C      0.247740000000     0.966630000000     0.720030000000    -0.0301829  
C332     C      0.380160000000     0.999910000000     0.663350000000     0.0824999  
C333     C      0.328420000000     0.984480000000     0.615280000000     0.196941   
C334     C      0.218120000000     0.968070000000     0.750410000000    -0.0332938  
C335     C      0.187860000000     0.999570000000     0.812780000000     0.0507567  
C336     C      0.310630000000     0.994000000000     0.686440000000     0.0653189  
C337     C      0.145680000000     0.007340000000     0.196570000000    -0.135705   
C338     C      0.383780000000     0.005320000000     0.328250000000     0.0919454  
C339     C      0.332200000000     0.005450000000     0.378680000000     0.0902884  
C340     C      0.354420000000     0.005620000000     0.297510000000    -0.0996805  
C341     C      0.283940000000     0.978760000000     0.242650000000    -0.0411539  
C342     C      0.253230000000     0.977550000000     0.213240000000    -0.034537   
C343     C      0.281370000000     0.005850000000     0.275560000000     0.000238758
C344     C      0.302120000000     0.006270000000     0.348740000000    -0.0975623  
C345     C      0.219450000000     0.003690000000     0.215930000000    -0.00889601 
C346     C      0.194850000000     0.995650000000     0.144030000000    -0.115141   
C347     C      0.217400000000     0.031310000000     0.248550000000    -0.0295965  
C348     C      0.163360000000     0.994760000000     0.115600000000     0.0890779  
C349     C      0.114530000000     0.006930000000     0.167500000000     0.195566   
C350     C      0.247880000000     0.032200000000     0.278130000000    -0.0358567  
C351     C      0.313070000000     0.006070000000     0.307630000000     0.0556283  
C352     C      0.186280000000     0.002020000000     0.185110000000     0.0791667  
C353     C      0.697130000000     0.994860000000     0.350360000000    -0.130831   
C354     C      0.828960000000     0.006000000000     0.112890000000     0.0914619  
C355     C      0.879520000000     0.008020000000     0.164290000000     0.0937517  
C356     C      0.798270000000     0.005910000000     0.142310000000    -0.0960875  
C357     C      0.741410000000     0.028170000000     0.212840000000    -0.0337774  
C358     C      0.711720000000     0.026430000000     0.243270000000    -0.0338918  
C359     C      0.776520000000     0.003950000000     0.215390000000    -0.000496089
C360     C      0.849640000000     0.007550000000     0.194440000000    -0.0977756  
C361     C      0.716380000000     0.000200000000     0.276750000000     0.00196053 
C362     C      0.643900000000     0.001550000000     0.301020000000    -0.0990556  
C363     C      0.751260000000     0.975510000000     0.278810000000    -0.038253   
C364     C      0.615410000000     0.000380000000     0.332450000000     0.0964255  
C365     C      0.668060000000     0.993310000000     0.381470000000     0.19163    
C366     C      0.781040000000     0.977500000000     0.248600000000    -0.0384219  
C367     C      0.808490000000     0.006110000000     0.183620000000     0.0563542  
C368     C      0.685370000000     0.998900000000     0.309730000000     0.0585391  
C369     C      0.013270000000     0.142960000000     0.796960000000    -0.133674   
C370     C      0.006830000000     0.380510000000     0.664930000000     0.0893041  
C371     C      0.009970000000     0.329590000000     0.614040000000     0.090978   
C372     C      0.008730000000     0.351030000000     0.695400000000    -0.101808   
C373     C      0.986610000000     0.280970000000     0.751330000000    -0.0413538  
C374     C      0.986710000000     0.250610000000     0.781030000000    -0.0372136  
C375     C      0.012030000000     0.278000000000     0.717060000000    -0.00109284 
C376     C      0.012040000000     0.299340000000     0.643770000000    -0.102161   
C377     C      0.012280000000     0.216570000000     0.777210000000    -0.00705615 
C378     C      0.008850000000     0.193030000000     0.849660000000    -0.110745   
C379     C      0.037990000000     0.213790000000     0.743120000000    -0.0313693  
C380     C      0.007280000000     0.161910000000     0.878390000000     0.0959235  
C381     C      0.011770000000     0.112090000000     0.826290000000     0.195569   
C382     C      0.037830000000     0.244130000000     0.713380000000    -0.0351429  
C383     C      0.011140000000     0.309850000000     0.685030000000     0.0558926  
C384     C      0.011590000000     0.183800000000     0.808360000000     0.0734799  
C385     C      0.991160000000     0.796050000000     0.852760000000    -0.140668   
C386     C      0.994110000000     0.664610000000     0.614230000000     0.0876025  
C387     C      0.991210000000     0.613650000000     0.665080000000     0.0874337  
C388     C      0.993840000000     0.694960000000     0.643950000000    -0.103704   
C389     C      0.018760000000     0.749740000000     0.714500000000    -0.0295011  
C390     C      0.019490000000     0.779260000000     0.745080000000    -0.0231475  
C391     C      0.992330000000     0.716270000000     0.717260000000    -0.013051   
C392     C      0.990610000000     0.643230000000     0.695540000000    -0.103567   
C393     C      0.993670000000     0.776110000000     0.779070000000    -0.0226549  
C394     C      0.999350000000     0.848400000000     0.802810000000    -0.128218   
C395     C      0.966960000000     0.742790000000     0.781570000000    -0.0286417  
C396     C      0.000190000000     0.877140000000     0.833980000000     0.114615   
C397     C      0.991790000000     0.825410000000     0.883660000000     0.198217   
C398     C      0.966380000000     0.713190000000     0.751090000000    -0.0351272  
C399     C      0.992150000000     0.684460000000     0.685180000000     0.0569858  
C400     C      0.994760000000     0.807260000000     0.811930000000     0.0828568  
C401     C      0.999190000000     0.852270000000     0.199490000000    -0.142709   
C402     C      0.010000000000     0.613840000000     0.329770000000     0.0924317  
C403     C      0.003870000000     0.664350000000     0.380830000000     0.0906768  
C404     C      0.011510000000     0.643730000000     0.299600000000    -0.0999054  
C405     C      0.036400000000     0.716430000000     0.246610000000    -0.0363815  
C406     C      0.036350000000     0.747290000000     0.217360000000    -0.0300326  
C407     C      0.008260000000     0.717000000000     0.278780000000     8.0706e-05 
C408     C      0.004910000000     0.694900000000     0.351460000000    -0.101586   
C409     C      0.007920000000     0.779210000000     0.219490000000    -0.00907315 
C410     C      0.014400000000     0.803580000000     0.147430000000    -0.112427   
C411     C      0.979480000000     0.779350000000     0.251480000000    -0.0349535  
C412     C      0.012480000000     0.834610000000     0.118620000000     0.0972865  
C413     C      0.996860000000     0.882910000000     0.170030000000     0.194787   
C414     C      0.979770000000     0.748730000000     0.280840000000    -0.0413211  
C415     C      0.008490000000     0.684770000000     0.310300000000     0.0561537  
C416     C      0.007570000000     0.812120000000     0.188450000000     0.0810628  
C417     C      0.991710000000     0.198510000000     0.142850000000    -0.135978   
C418     C      0.991020000000     0.330040000000     0.381060000000     0.0863887  
C419     C      0.992820000000     0.380930000000     0.330100000000     0.0866127  
C420     C      0.989470000000     0.299690000000     0.351390000000    -0.104471   
C421     C      0.010880000000     0.241940000000     0.282670000000    -0.028744   
C422     C      0.010430000000     0.212240000000     0.252270000000    -0.0252363  
C423     C      0.988630000000     0.278160000000     0.278030000000    -0.0135592  
C424     C      0.991350000000     0.351340000000     0.299670000000    -0.10199    
C425     C      0.987830000000     0.218090000000     0.216440000000    -0.0194498  
C426     C      0.986060000000     0.145710000000     0.192690000000    -0.110033   
C427     C      0.965340000000     0.254140000000     0.211910000000    -0.0306067  
C428     C      0.987300000000     0.117000000000     0.161520000000     0.0937812  
C429     C      0.993180000000     0.169210000000     0.111930000000     0.188822   
C430     C      0.965690000000     0.283790000000     0.242350000000    -0.0343825  
C431     C      0.989720000000     0.310100000000     0.310080000000     0.0562511  
C432     C      0.988320000000     0.187020000000     0.183600000000     0.0737666  
Eu1      Eu     0.996440000000     0.999110000000     0.069970000000     3.44672    
Eu2      Eu     0.998390000000     0.925090000000     0.000300000000     3.05403    
Eu3      Eu     0.996790000000     0.069470000000     0.995250000000     3.4617     
Eu4      Eu     0.925590000000     0.997180000000     0.997200000000     3.04303    
Eu5      Eu     0.069990000000     0.997560000000     0.998480000000     3.47393    
Eu6      Eu     0.998980000000     0.995430000000     0.925600000000     3.02631    
Eu7      Eu     0.997380000000     0.497630000000     0.425340000000     3.48424    
Eu8      Eu     0.997110000000     0.569510000000     0.497260000000     3.01226    
Eu9      Eu     0.997430000000     0.424960000000     0.497920000000     3.4513     
Eu10     Eu     0.925240000000     0.496590000000     0.496760000000     3.08908    
Eu11     Eu     0.069560000000     0.498080000000     0.498030000000     3.54943    
Eu12     Eu     0.997400000000     0.496970000000     0.569930000000     3.01522    
Eu13     Eu     0.498410000000     0.998050000000     0.425880000000     3.46719    
Eu14     Eu     0.425500000000     0.996800000000     0.496760000000     3.02965    
Eu15     Eu     0.569910000000     0.997380000000     0.499430000000     3.4793     
Eu16     Eu     0.498670000000     0.924980000000     0.496730000000     3.06985    
Eu17     Eu     0.496820000000     0.069480000000     0.499670000000     3.51219    
Eu18     Eu     0.497050000000     0.996520000000     0.570200000000     3.05759    
Eu19     Eu     0.498590000000     0.425110000000     0.997570000000     3.48718    
Eu20     Eu     0.569850000000     0.497510000000     0.998270000000     3.03136    
Eu21     Eu     0.425250000000     0.496930000000     0.998220000000     3.47542    
Eu22     Eu     0.497050000000     0.497010000000     0.925870000000     3.06185    
Eu23     Eu     0.498150000000     0.497490000000     0.070270000000     3.55648    
Eu24     Eu     0.496750000000     0.569630000000     0.998390000000     3.01911    
H1       H      0.959730000000     0.961720000000     0.065870000000    -0.173421   
H2       H      0.055640000000     0.058870000000     0.055880000000     0.417415   
H3       H      0.960220000000     0.063530000000     0.957680000000    -0.171105   
H4       H      0.065930000000     0.959320000000     0.962650000000    -0.179328   
H5       H      0.960070000000     0.534490000000     0.429710000000    -0.173628   
H6       H      0.057130000000     0.438480000000     0.438320000000     0.413777   
H7       H      0.960190000000     0.429510000000     0.534980000000    -0.170115   
H8       H      0.064460000000     0.535020000000     0.535140000000    -0.187735   
H9       H      0.461680000000     0.960710000000     0.429620000000    -0.177219   
H10      H      0.557290000000     0.057740000000     0.440620000000     0.417636   
H11      H      0.564940000000     0.959820000000     0.535780000000    -0.177092   
H12      H      0.459150000000     0.063790000000     0.535980000000    -0.181611   
H13      H      0.535600000000     0.430150000000     0.960450000000    -0.17706    
H14      H      0.438970000000     0.437460000000     0.057470000000     0.418685   
H15      H      0.429550000000     0.534110000000     0.961210000000    -0.178607   
H16      H      0.535030000000     0.534760000000     0.065540000000    -0.18832    
H17      H      0.501940000000     0.411700000000     0.174930000000     0.0331404  
H18      H      0.494340000000     0.083880000000     0.323510000000     0.0240545  
H19      H      0.454750000000     0.308810000000     0.254320000000     0.0414088  
H20      H      0.539400000000     0.184850000000     0.239850000000     0.0380477  
H21      H      0.494400000000     0.133730000000     0.270170000000     0.0596259  
H22      H      0.541880000000     0.236990000000     0.187140000000     0.0399997  
H23      H      0.495860000000     0.229100000000     0.359240000000     0.0811548  
H24      H      0.500890000000     0.359790000000     0.226990000000     0.0590301  
H25      H      0.500700000000     0.267590000000     0.133760000000     0.0594532  
H26      H      0.452260000000     0.256750000000     0.306930000000     0.0409271  
H27      H      0.502430000000     0.320090000000     0.082360000000     0.0335372  
H28      H      0.492870000000     0.673790000000     0.084270000000     0.0209534  
H29      H      0.500780000000     0.823060000000     0.411180000000     0.0291911  
H30      H      0.452950000000     0.757560000000     0.187790000000     0.0388809  
H31      H      0.538890000000     0.735100000000     0.309830000000     0.0390377  
H32      H      0.497270000000     0.769850000000     0.361430000000     0.0612137  
H33      H      0.534320000000     0.682090000000     0.258190000000     0.0398268  
H34      H      0.509140000000     0.857880000000     0.265810000000     0.081467   
H35      H      0.494130000000     0.725780000000     0.136090000000     0.0556843  
H36      H      0.488080000000     0.632970000000     0.228540000000     0.0585966  
H37      H      0.457800000000     0.810610000000     0.239280000000     0.0400664  
H38      H      0.487760000000     0.581490000000     0.176030000000     0.0329409  
H39      H      0.495500000000     0.674170000000     0.911310000000     0.0198389  
H40      H      0.506000000000     0.820900000000     0.581770000000     0.0338943  
H41      H      0.538200000000     0.757000000000     0.808850000000     0.0391198  
H42      H      0.462170000000     0.731340000000     0.680990000000     0.0407943  
H43      H      0.508340000000     0.767320000000     0.631730000000     0.0617425  
H44      H      0.462760000000     0.679550000000     0.734080000000     0.0387116  
H45      H      0.484140000000     0.854030000000     0.726190000000     0.0825281  
H46      H      0.495630000000     0.725510000000     0.858630000000     0.0553029  
H47      H      0.505080000000     0.631310000000     0.767840000000     0.0548437  
H48      H      0.536860000000     0.808940000000     0.756050000000     0.0411894  
H49      H      0.503690000000     0.580760000000     0.820940000000     0.0208235  
H50      H      0.489840000000     0.319820000000     0.912770000000     0.0319933  
H51      H      0.504550000000     0.172400000000     0.584810000000     0.0252259  
H52      H      0.538470000000     0.240630000000     0.810880000000     0.0398229  
H53      H      0.456790000000     0.255570000000     0.684830000000     0.0383661  
H54      H      0.504060000000     0.225560000000     0.634860000000     0.0597269  
H55      H      0.453040000000     0.308010000000     0.737170000000     0.0389306  
H56      H      0.498120000000     0.136410000000     0.730010000000     0.0822536  
H57      H      0.490770000000     0.267830000000     0.860780000000     0.0588413  
H58      H      0.494280000000     0.360960000000     0.768540000000     0.0553653  
H59      H      0.542170000000     0.188260000000     0.758630000000     0.0409749  
H60      H      0.492590000000     0.412300000000     0.821060000000     0.0204637  
H61      H      0.911460000000     0.319240000000     0.492860000000     0.0194631  
H62      H      0.581490000000     0.173230000000     0.494500000000     0.0307965  
H63      H      0.807430000000     0.236140000000     0.451940000000     0.0397114  
H64      H      0.682520000000     0.262900000000     0.532440000000     0.0398126  
H65      H      0.631410000000     0.226600000000     0.489610000000     0.061686   
H66      H      0.735550000000     0.314630000000     0.529080000000     0.0423582  
H67      H      0.726740000000     0.139720000000     0.509670000000     0.083626   
H68      H      0.858680000000     0.267910000000     0.493110000000     0.0560107  
H69      H      0.767860000000     0.362180000000     0.484370000000     0.0607198  
H70      H      0.754610000000     0.184280000000     0.455890000000     0.0419565  
H71      H      0.821040000000     0.412670000000     0.485130000000     0.0378648  
H72      H      0.585080000000     0.821720000000     0.485450000000     0.0251801  
H73      H      0.911320000000     0.671530000000     0.510010000000     0.0198304  
H74      H      0.683980000000     0.738440000000     0.532020000000     0.0399098  
H75      H      0.815310000000     0.760020000000     0.460770000000     0.0384269  
H76      H      0.861530000000     0.725140000000     0.510250000000     0.0581681  
H77      H      0.763270000000     0.812840000000     0.458110000000     0.041466   
H78      H      0.767470000000     0.638410000000     0.484260000000     0.0829027  
H79      H      0.637020000000     0.769770000000     0.485840000000     0.0572458  
H80      H      0.728870000000     0.862500000000     0.499210000000     0.0602816  
H81      H      0.735770000000     0.685510000000     0.534020000000     0.0413116  
H82      H      0.676330000000     0.913820000000     0.497940000000     0.0387677  
H83      H      0.084010000000     0.320990000000     0.500000000000     0.0196044  
H84      H      0.412470000000     0.173160000000     0.493490000000     0.0341738  
H85      H      0.187930000000     0.244020000000     0.450640000000     0.0389996  
H86      H      0.310830000000     0.256090000000     0.537460000000     0.0389396  
H87      H      0.362830000000     0.226720000000     0.493200000000     0.0617727  
H88      H      0.258510000000     0.308640000000     0.540640000000     0.0407769  
H89      H      0.266890000000     0.138240000000     0.489080000000     0.0829555  
H90      H      0.136370000000     0.269360000000     0.498240000000     0.0560318  
H91      H      0.228120000000     0.363030000000     0.499500000000     0.0585169  
H92      H      0.240250000000     0.191700000000     0.447230000000     0.0408335  
H93      H      0.175180000000     0.414040000000     0.501690000000     0.0334638  
H94      H      0.174690000000     0.583280000000     0.492940000000     0.0314406  
H95      H      0.323110000000     0.910870000000     0.486740000000     0.0377834  
H96      H      0.249990000000     0.689590000000     0.540490000000     0.0413044  
H97      H      0.242180000000     0.806570000000     0.445650000000     0.0390717  
H98      H      0.269630000000     0.861130000000     0.486130000000     0.0640048  
H99      H      0.189350000000     0.754400000000     0.443730000000     0.0397386  
H100     H      0.357800000000     0.766500000000     0.504530000000     0.0813511  
H101     H      0.226580000000     0.635460000000     0.492740000000     0.0590507  
H102     H      0.133100000000     0.727200000000     0.487380000000     0.056616   
H103     H      0.302240000000     0.741960000000     0.543130000000     0.0415631  
H104     H      0.081740000000     0.674430000000     0.487450000000     0.0217413  
H105     H      0.581270000000     0.483330000000     0.175360000000     0.025883   
H106     H      0.823050000000     0.480610000000     0.411990000000     0.0361852  
H107     H      0.755370000000     0.440200000000     0.186450000000     0.0384411  
H108     H      0.735490000000     0.520690000000     0.312510000000     0.0416015  
H109     H      0.769360000000     0.475900000000     0.362560000000     0.0632535  
H110     H      0.682900000000     0.521260000000     0.260250000000     0.0399615  
H111     H      0.856680000000     0.489130000000     0.266290000000     0.0813808  
H112     H      0.632270000000     0.478530000000     0.227990000000     0.0574524  
H113     H      0.726240000000     0.486520000000     0.136700000000     0.0554738  
H114     H      0.808090000000     0.439850000000     0.238700000000     0.0395192  
H115     H      0.674480000000     0.490440000000     0.084470000000     0.0206665  
H116     H      0.174720000000     0.501600000000     0.412070000000     0.0235148  
H117     H      0.322500000000     0.508390000000     0.083510000000     0.0193223  
H118     H      0.256430000000     0.547490000000     0.309350000000     0.0396249  
H119     H      0.235330000000     0.466640000000     0.183720000000     0.0371199  
H120     H      0.269070000000     0.511910000000     0.133400000000     0.0573411  
H121     H      0.182980000000     0.466620000000     0.236280000000     0.0384891  
H122     H      0.357010000000     0.496990000000     0.228810000000     0.0812878  
H123     H      0.226550000000     0.503420000000     0.359810000000     0.056428   
H124     H      0.132700000000     0.509070000000     0.268200000000     0.0562355  
H125     H      0.308930000000     0.547060000000     0.256930000000     0.0402673  
H126     H      0.081660000000     0.506230000000     0.320880000000     0.0251496  
H127     H      0.410530000000     0.490190000000     0.821980000000     0.0202657  
H128     H      0.082410000000     0.485910000000     0.673160000000     0.0205664  
H129     H      0.304860000000     0.532960000000     0.744610000000     0.0388902  
H130     H      0.185690000000     0.441140000000     0.756550000000     0.0372566  
H131     H      0.131990000000     0.484300000000     0.727000000000     0.0575246  
H132     H      0.238070000000     0.440240000000     0.809350000000     0.0381908  
H133     H      0.228170000000     0.490020000000     0.638790000000     0.0812291  
H134     H      0.358330000000     0.488140000000     0.770170000000     0.0553827  
H135     H      0.266500000000     0.482810000000     0.863730000000     0.0544803  
H136     H      0.252660000000     0.533970000000     0.692120000000     0.0402032  
H137     H      0.319330000000     0.484270000000     0.914960000000     0.0192204  
H138     H      0.583130000000     0.498330000000     0.820820000000     0.0205443  
H139     H      0.911460000000     0.511280000000     0.671970000000     0.0190652  
H140     H      0.684170000000     0.542740000000     0.736840000000     0.0388881  
H141     H      0.813070000000     0.468120000000     0.761200000000     0.0368101  
H142     H      0.861340000000     0.514710000000     0.725310000000     0.0564605  
H143     H      0.760590000000     0.468230000000     0.813590000000     0.0374989  
H144     H      0.766960000000     0.489910000000     0.638500000000     0.0824527  
H145     H      0.635250000000     0.499740000000     0.768910000000     0.0551724  
H146     H      0.726910000000     0.509920000000     0.862350000000     0.0537522  
H147     H      0.736450000000     0.541860000000     0.684210000000     0.0411557  
H148     H      0.674310000000     0.507190000000     0.913530000000     0.0202316  
H149     H      0.583080000000     0.674720000000     0.992580000000     0.019785   
H150     H      0.912720000000     0.821410000000     0.004640000000     0.0353666  
H151     H      0.685570000000     0.756790000000     0.035640000000     0.0396731  
H152     H      0.812980000000     0.734310000000     0.957810000000     0.0394589  
H153     H      0.862570000000     0.768010000000     0.005050000000     0.0621081  
H154     H      0.759880000000     0.682480000000     0.956680000000     0.0377763  
H155     H      0.768130000000     0.856090000000     0.986140000000     0.0813707  
H156     H      0.635470000000     0.726440000000     0.991990000000     0.0547368  
H157     H      0.727090000000     0.632770000000     0.998490000000     0.0543245  
H158     H      0.738390000000     0.808720000000     0.036170000000     0.0419006  
H159     H      0.674320000000     0.581890000000     0.997900000000     0.0199387  
H160     H      0.584050000000     0.320550000000     0.006990000000     0.0258979  
H161     H      0.912380000000     0.173230000000     0.003260000000     0.0337085  
H162     H      0.688170000000     0.242470000000     0.961240000000     0.0395146  
H163     H      0.810380000000     0.256660000000     0.048750000000     0.0389916  
H164     H      0.862570000000     0.226630000000     0.004750000000     0.060808   
H165     H      0.757980000000     0.309310000000     0.050220000000     0.0386106  
H166     H      0.766830000000     0.137860000000     0.003450000000     0.0827922  
H167     H      0.636370000000     0.268890000000     0.008240000000     0.0582868  
H168     H      0.728200000000     0.362490000000     0.006450000000     0.055188   
H169     H      0.740490000000     0.190140000000     0.959520000000     0.0407373  
H170     H      0.675270000000     0.413580000000     0.005730000000     0.0211342  
H171     H      0.409960000000     0.673100000000     0.006350000000     0.0211663  
H172     H      0.083000000000     0.823300000000     0.017880000000     0.0288431  
H173     H      0.308720000000     0.753950000000     0.057050000000     0.0390041  
H174     H      0.181550000000     0.735010000000     0.977960000000     0.0394451  
H175     H      0.132140000000     0.769450000000     0.022400000000     0.0608794  
H176     H      0.233340000000     0.682000000000     0.976980000000     0.0383181  
H177     H      0.228930000000     0.856170000000     0.009850000000     0.0817064  
H178     H      0.357800000000     0.724670000000     0.010790000000     0.0560583  
H179     H      0.266430000000     0.630870000000     0.018240000000     0.055577   
H180     H      0.256970000000     0.807050000000     0.057810000000     0.0400426  
H181     H      0.319180000000     0.579910000000     0.012900000000     0.0205999  
H182     H      0.174150000000     0.083980000000     0.993640000000     0.0241613  
H183     H      0.322790000000     0.411690000000     0.986430000000     0.0183411  
H184     H      0.256080000000     0.186030000000     0.947420000000     0.0396363  
H185     H      0.234880000000     0.312150000000     0.027300000000     0.0374044  
H186     H      0.269270000000     0.362030000000     0.982930000000     0.0560059  
H187     H      0.182190000000     0.259980000000     0.027060000000     0.0405017  
H188     H      0.357050000000     0.266480000000     0.997090000000     0.0802932  
H189     H      0.225840000000     0.136200000000     0.991870000000     0.056733   
H190     H      0.131940000000     0.227500000000     0.984510000000     0.057223   
H191     H      0.308850000000     0.238080000000     0.947980000000     0.0400915  
H192     H      0.080890000000     0.174720000000     0.987240000000     0.0312653  
H193     H      0.674000000000     0.995480000000     0.585400000000     0.0381456  
H194     H      0.823500000000     0.003600000000     0.911840000000     0.0509489  
H195     H      0.746870000000     0.947110000000     0.692560000000     0.0395368  
H196     H      0.743900000000     0.045100000000     0.807180000000     0.0408435  
H197     H      0.769820000000     0.004220000000     0.862420000000     0.0710898  
H198     H      0.690680000000     0.047740000000     0.755390000000     0.0405536  
H199     H      0.856910000000     0.981360000000     0.767620000000     0.0829894  
H200     H      0.725700000000     0.994600000000     0.637640000000     0.0638841  
H201     H      0.632400000000     0.005890000000     0.729150000000     0.0647254  
H202     H      0.799560000000     0.943870000000     0.744550000000     0.0419557  
H203     H      0.581180000000     0.007420000000     0.676090000000     0.0431925  
H204     H      0.085720000000     0.992290000000     0.822560000000     0.0397365  
H205     H      0.411400000000     0.006300000000     0.671750000000     0.0547966  
H206     H      0.193970000000     0.945660000000     0.750120000000     0.0414402  
H207     H      0.305720000000     0.046990000000     0.750620000000     0.040832   
H208     H      0.361990000000     0.006850000000     0.725460000000     0.0636586  
H209     H      0.254130000000     0.049120000000     0.804050000000     0.0403643  
H210     H      0.267600000000     0.980240000000     0.638970000000     0.0821762  
H211     H      0.137780000000     0.991560000000     0.770740000000     0.0606254  
H212     H      0.229310000000     0.008230000000     0.863220000000     0.0589343  
H213     H      0.245730000000     0.943020000000     0.697170000000     0.0426386  
H214     H      0.176410000000     0.009440000000     0.914640000000     0.0319535  
H215     H      0.322190000000     0.005000000000     0.410070000000     0.0408797  
H216     H      0.172130000000     0.989400000000     0.084280000000     0.0346462  
H217     H      0.245430000000     0.053790000000     0.302880000000     0.0427143  
H218     H      0.255580000000     0.955530000000     0.188890000000     0.0396092  
H219     H      0.225870000000     0.991910000000     0.133560000000     0.0615843  
H220     H      0.309240000000     0.957790000000     0.240170000000     0.0407353  
H221     H      0.138000000000     0.012020000000     0.228280000000     0.0837531  
H222     H      0.270420000000     0.006230000000     0.357800000000     0.0622122  
H223     H      0.364080000000     0.005810000000     0.266000000000     0.0596721  
H224     H      0.192370000000     0.052550000000     0.251150000000     0.0410275  
H225     H      0.415420000000     0.004990000000     0.318950000000     0.0301699  
H226     H      0.910960000000     0.009000000000     0.174230000000     0.0386007  
H227     H      0.583790000000     0.003110000000     0.323530000000     0.0345577  
H228     H      0.807440000000     0.957930000000     0.250990000000     0.0425683  
H229     H      0.685520000000     0.046260000000     0.240950000000     0.0401156  
H230     H      0.633260000000     0.004170000000     0.269950000000     0.0611336  
H231     H      0.737300000000     0.049070000000     0.187720000000     0.0418282  
H232     H      0.729130000000     0.993140000000     0.358120000000     0.0797234  
H233     H      0.858780000000     0.008380000000     0.226090000000     0.062447   
H234     H      0.766760000000     0.004630000000     0.132710000000     0.0632031  
H235     H      0.755470000000     0.954290000000     0.303640000000     0.0434171  
H236     H      0.819610000000     0.005060000000     0.081300000000     0.0450563  
H237     H      0.010420000000     0.319910000000     0.582540000000     0.0218123  
H238     H      0.004920000000     0.171330000000     0.909900000000     0.0252303  
H239     H      0.058230000000     0.241250000000     0.687650000000     0.0405616  
H240     H      0.966090000000     0.253400000000     0.806570000000     0.0376229  
H241     H      0.008160000000     0.224280000000     0.859970000000     0.0596467  
H242     H      0.965940000000     0.306360000000     0.754780000000     0.0381346  
H243     H      0.015240000000     0.134920000000     0.765050000000     0.0838251  
H244     H      0.013500000000     0.267840000000     0.634380000000     0.0574983  
H245     H      0.008570000000     0.360550000000     0.726940000000     0.0556784  
H246     H      0.058540000000     0.188320000000     0.739580000000     0.0419257  
H247     H      0.004930000000     0.411960000000     0.674530000000     0.0212342  
H248     H      0.990210000000     0.582150000000     0.674680000000     0.019287   
H249     H      0.004340000000     0.908450000000     0.824700000000     0.036882   
H250     H      0.945240000000     0.688090000000     0.753800000000     0.0386215  
H251     H      0.040870000000     0.804150000000     0.742430000000     0.0385755  
H252     H      0.001860000000     0.858640000000     0.771600000000     0.07328    
H253     H      0.039500000000     0.752700000000     0.689070000000     0.0402653  
H254     H      0.988080000000     0.764280000000     0.860810000000     0.0809857  
H255     H      0.989660000000     0.633760000000     0.727080000000     0.0543213  
H256     H      0.994560000000     0.726500000000     0.634600000000     0.0547951  
H257     H      0.946100000000     0.739770000000     0.806890000000     0.0395098  
H258     H      0.995410000000     0.674280000000     0.582750000000     0.0198354  
H259     H      0.000930000000     0.673780000000     0.412280000000     0.022296   
H260     H      0.018450000000     0.826020000000     0.087340000000     0.0247884  
H261     H      0.957270000000     0.749590000000     0.304900000000     0.0405099  
H262     H      0.058980000000     0.746460000000     0.193440000000     0.0382842  
H263     H      0.020520000000     0.772870000000     0.137310000000     0.0605323  
H264     H      0.058940000000     0.692510000000     0.244500000000     0.0400095  
H265     H      0.993910000000     0.859900000000     0.231120000000     0.0825954  
H266     H      0.003060000000     0.726340000000     0.361020000000     0.0575512  
H267     H      0.014130000000     0.634670000000     0.268030000000     0.0595371  
H268     H      0.956520000000     0.802860000000     0.253590000000     0.0411199  
H269     H      0.011980000000     0.582430000000     0.320060000000     0.0320643  
H270     H      0.994240000000     0.412380000000     0.320450000000     0.0306501  
H271     H      0.985000000000     0.085470000000     0.170770000000     0.0361232  
H272     H      0.947640000000     0.310980000000     0.238070000000     0.0396517  
H273     H      0.028540000000     0.185070000000     0.256440000000     0.0409545  
H274     H      0.982890000000     0.135450000000     0.223840000000     0.0622612  
H275     H      0.029370000000     0.236840000000     0.309450000000     0.0388999  
H276     H      0.994210000000     0.230400000000     0.135030000000     0.0788104  
H277     H      0.992160000000     0.360830000000     0.268140000000     0.057111   
H278     H      0.987620000000     0.268240000000     0.360900000000     0.0540852  
H279     H      0.947130000000     0.259300000000     0.184940000000     0.0394656  
H280     H      0.990660000000     0.320400000000     0.412580000000     0.0183999  
N1       N      0.494870000000     0.126760000000     0.373150000000    -0.230791   
N2       N      0.501880000000     0.369970000000     0.124620000000    -0.217754   
N3       N      0.505940000000     0.872310000000     0.368130000000    -0.227921   
N4       N      0.490700000000     0.623620000000     0.126110000000    -0.216614   
N5       N      0.494130000000     0.869170000000     0.624420000000    -0.224289   
N6       N      0.499360000000     0.623510000000     0.870270000000    -0.214977   
N7       N      0.501610000000     0.122790000000     0.627620000000    -0.228112   
N8       N      0.491610000000     0.370040000000     0.870960000000    -0.217028   
N9       N      0.624580000000     0.124750000000     0.504030000000    -0.229942   
N10      N      0.870350000000     0.369890000000     0.489600000000    -0.215779   
N11      N      0.868920000000     0.623220000000     0.497110000000    -0.226481   
N12      N      0.626670000000     0.871750000000     0.491800000000    -0.215664   
N13      N      0.369270000000     0.123860000000     0.491270000000    -0.226221   
N14      N      0.125500000000     0.371510000000     0.500670000000    -0.219126   
N15      N      0.371960000000     0.868430000000     0.497200000000    -0.224476   
N16      N      0.124220000000     0.624820000000     0.490630000000    -0.216528   
N17      N      0.871700000000     0.487770000000     0.368520000000    -0.227941   
N18      N      0.623930000000     0.487560000000     0.125880000000    -0.218048   
N19      N      0.371470000000     0.500800000000     0.126530000000    -0.232385   
N20      N      0.124220000000     0.503480000000     0.370550000000    -0.220074   
N21      N      0.125830000000     0.489930000000     0.624130000000    -0.22899    
N22      N      0.368970000000     0.487860000000     0.872460000000    -0.217973   
N23      N      0.868920000000     0.498810000000     0.623640000000    -0.225986   
N24      N      0.624650000000     0.502370000000     0.871170000000    -0.214957   
N25      N      0.870150000000     0.870390000000     0.995480000000    -0.226131   
N26      N      0.624570000000     0.624350000000     0.995440000000    -0.215202   
N27      N      0.869230000000     0.123850000000     0.001610000000    -0.224809   
N28      N      0.625600000000     0.371010000000     0.005810000000    -0.217295   
N29      N      0.126680000000     0.871760000000     0.011050000000    -0.227213   
N30      N      0.368640000000     0.622530000000     0.008960000000    -0.216927   
N31      N      0.371750000000     0.368640000000     0.993630000000    -0.231343   
N32      N      0.123530000000     0.125260000000     0.990810000000    -0.218075   
N33      N      0.871950000000     0.991420000000     0.869280000000    -0.223166   
N34      N      0.623650000000     0.001750000000     0.626680000000    -0.212632   
N35      N      0.369050000000     0.992200000000     0.623670000000    -0.220635   
N36      N      0.127030000000     0.000800000000     0.872600000000    -0.211618   
N37      N      0.123290000000     0.000230000000     0.126740000000    -0.224253   
N38      N      0.372780000000     0.004890000000     0.368590000000    -0.214223   
N39      N      0.626850000000     0.996480000000     0.372620000000    -0.231212   
N40      N      0.869350000000     0.006570000000     0.123770000000    -0.212748   
N41      N      0.008170000000     0.121510000000     0.867320000000    -0.226579   
N42      N      0.007070000000     0.369920000000     0.624480000000    -0.216839   
N43      N      0.996350000000     0.866310000000     0.874310000000    -0.229232   
N44      N      0.993090000000     0.624180000000     0.624660000000    -0.214836   
N45      N      0.003820000000     0.874140000000     0.129350000000    -0.225266   
N46      N      0.005890000000     0.624040000000     0.370110000000    -0.215769   
N47      N      0.991020000000     0.128080000000     0.121240000000    -0.228743   
N48      N      0.992790000000     0.370430000000     0.370560000000    -0.219235   
O1       O      0.993670000000     0.108050000000     0.052700000000    -0.603405   
O2       O      0.000720000000     0.890050000000     0.060110000000    -0.567678   
O3       O      0.938380000000     0.005140000000     0.107010000000    -0.593053   
O4       O      0.054470000000     0.999010000000     0.107770000000    -0.598054   
O5       O      0.106280000000     0.998250000000     0.057610000000    -0.617863   
O6       O      0.887780000000     0.001550000000     0.055310000000    -0.54717    
O7       O      0.002000000000     0.942600000000     0.109460000000    -0.577016   
O8       O      0.993320000000     0.058740000000     0.105220000000    -0.608156   
O9       O      0.037830000000     0.959320000000     0.039790000000    -1.45807    
O10      O      0.957410000000     0.038540000000     0.036420000000    -1.45753    
O11      O      0.951400000000     0.952250000000     0.040400000000    -1.05929    
O12      O      0.038660000000     0.040730000000     0.038870000000    -1.62098    
O13      O      0.997900000000     0.886350000000     0.942890000000    -0.549202   
O14      O      0.003520000000     0.105450000000     0.936580000000    -0.603379   
O15      O      0.888730000000     0.939000000000     0.996680000000    -0.549117   
O16      O      0.107990000000     0.940470000000     0.006620000000    -0.589678   
O17      O      0.106620000000     0.056380000000     0.994830000000    -0.617417   
O18      O      0.888360000000     0.055340000000     0.998500000000    -0.551995   
O19      O      0.940890000000     0.993090000000     0.887890000000    -0.539596   
O20      O      0.058180000000     0.997080000000     0.889540000000    -0.561495   
O21      O      0.889230000000     0.994080000000     0.938270000000    -0.548732   
O22      O      0.108710000000     0.001640000000     0.941260000000    -0.599676   
O23      O      0.939470000000     0.887850000000     0.998480000000    -0.553067   
O24      O      0.938560000000     0.106900000000     0.999320000000    -0.60226    
O25      O      0.054900000000     0.107050000000     0.992680000000    -0.615221   
O26      O      0.057640000000     0.888940000000     0.005390000000    -0.560232   
O27      O      0.997910000000     0.935690000000     0.890350000000    -0.551759   
O28      O      0.002850000000     0.053080000000     0.887170000000    -0.537402   
O29      O      0.038240000000     0.036620000000     0.957660000000    -1.45848    
O30      O      0.958980000000     0.956420000000     0.958950000000    -1.36865    
O31      O      0.952000000000     0.037440000000     0.949900000000    -1.05587    
O32      O      0.040460000000     0.950250000000     0.953820000000    -1.0516     
O33      O      0.995160000000     0.387910000000     0.439390000000    -0.624664   
O34      O      0.000550000000     0.606260000000     0.438620000000    -0.563861   
O35      O      0.940360000000     0.491280000000     0.387260000000    -0.598164   
O36      O      0.055640000000     0.500410000000     0.388300000000    -0.626187   
O37      O      0.106890000000     0.500700000000     0.439490000000    -0.627506   
O38      O      0.888840000000     0.492810000000     0.437580000000    -0.559646   
O39      O      0.003300000000     0.555190000000     0.387410000000    -0.595391   
O40      O      0.995550000000     0.439130000000     0.388200000000    -0.616622   
O41      O      0.037580000000     0.537050000000     0.457450000000    -1.47342    
O42      O      0.958360000000     0.456700000000     0.457090000000    -1.47169    
O43      O      0.951250000000     0.543010000000     0.455370000000    -1.06391    
O44      O      0.039620000000     0.455640000000     0.455810000000    -1.63709    
O45      O      0.995100000000     0.606610000000     0.555810000000    -0.563643   
O46      O      0.003790000000     0.387290000000     0.555630000000    -0.605084   
O47      O      0.887670000000     0.554540000000     0.497580000000    -0.547613   
O48      O      0.107120000000     0.555940000000     0.492940000000    -0.607726   
O49      O      0.107200000000     0.440030000000     0.499940000000    -0.624927   
O50      O      0.888400000000     0.438240000000     0.493260000000    -0.566216   
O51      O      0.938220000000     0.497790000000     0.606550000000    -0.56076    
O52      O      0.056610000000     0.494110000000     0.606720000000    -0.563095   
O53      O      0.887780000000     0.498000000000     0.554900000000    -0.546049   
O54      O      0.107180000000     0.492300000000     0.555410000000    -0.602853   
O55      O      0.938100000000     0.606080000000     0.497770000000    -0.563192   
O56      O      0.939510000000     0.386970000000     0.492560000000    -0.6039     
O57      O      0.056400000000     0.388390000000     0.499700000000    -0.620899   
O58      O      0.055570000000     0.606770000000     0.494110000000    -0.565244   
O59      O      0.995050000000     0.555410000000     0.607080000000    -0.56504    
O60      O      0.001220000000     0.438400000000     0.606830000000    -0.566141   
O61      O      0.037730000000     0.457320000000     0.537160000000    -1.46552    
O62      O      0.957400000000     0.536490000000     0.537000000000    -1.36632    
O63      O      0.951430000000     0.455220000000     0.543360000000    -1.06195    
O64      O      0.038710000000     0.543520000000     0.543730000000    -1.04557    
O65      O      0.607760000000     0.996650000000     0.441420000000    -0.603293   
O66      O      0.389470000000     0.000540000000     0.437520000000    -0.554576   
O67      O      0.504370000000     0.941060000000     0.387290000000    -0.590052   
O68      O      0.496400000000     0.057450000000     0.389840000000    -0.617267   
O69      O      0.495350000000     0.107310000000     0.441810000000    -0.613057   
O70      O      0.502580000000     0.889250000000     0.437290000000    -0.566458   
O71      O      0.441400000000     0.003480000000     0.387100000000    -0.600872   
O72      O      0.557610000000     0.997020000000     0.389640000000    -0.618322   
O73      O      0.458470000000     0.037860000000     0.457960000000    -1.46338    
O74      O      0.538960000000     0.958600000000     0.457700000000    -1.4669     
O75      O      0.452710000000     0.951480000000     0.454960000000    -1.06016    
O76      O      0.539790000000     0.040020000000     0.457550000000    -1.63591    
O77      O      0.387620000000     0.994310000000     0.554770000000    -0.537869   
O78      O      0.606950000000     0.001440000000     0.557670000000    -0.59418    
O79      O      0.440680000000     0.887430000000     0.496660000000    -0.551734   
O80      O      0.438560000000     0.106710000000     0.493860000000    -0.601127   
O81      O      0.555470000000     0.106820000000     0.502800000000    -0.617801   
O82      O      0.557710000000     0.888680000000     0.493840000000    -0.571482   
O83      O      0.495710000000     0.937960000000     0.606570000000    -0.54693    
O84      O      0.498840000000     0.054380000000     0.607950000000    -0.550973   
O85      O      0.496480000000     0.887250000000     0.555310000000    -0.55011    
O86      O      0.501130000000     0.106310000000     0.558190000000    -0.610462   
O87      O      0.388970000000     0.937660000000     0.496850000000    -0.547692   
O88      O      0.608470000000     0.940290000000     0.494030000000    -0.597404   
O89      O      0.606550000000     0.055920000000     0.502390000000    -0.602198   
O90      O      0.388250000000     0.055160000000     0.494300000000    -0.543619   
O91      O      0.438050000000     0.994110000000     0.606420000000    -0.549826   
O92      O      0.555080000000     0.999510000000     0.608170000000    -0.562135   
O93      O      0.537320000000     0.037330000000     0.538840000000    -1.46836    
O94      O      0.458040000000     0.956760000000     0.536510000000    -1.37057    
O95      O      0.539240000000     0.950860000000     0.544000000000    -1.06563    
O96      O      0.450680000000     0.037900000000     0.544060000000    -1.05393    
O97      O      0.388790000000     0.437810000000     0.996100000000    -0.624253   
O98      O      0.607340000000     0.439370000000     0.001300000000    -0.568849   
O99      O      0.493290000000     0.387340000000     0.939870000000    -0.604154   
O100     O      0.500840000000     0.387800000000     0.055880000000    -0.616096   
O101     O      0.500410000000     0.438830000000     0.107250000000    -0.619477   
O102     O      0.494520000000     0.438590000000     0.888800000000    -0.575753   
O103     O      0.556580000000     0.387820000000     0.003300000000    -0.605182   
O104     O      0.440510000000     0.387650000000     0.995270000000    -0.610184   
O105     O      0.537510000000     0.457240000000     0.038260000000    -1.47655    
O106     O      0.457430000000     0.456770000000     0.958730000000    -1.47004    
O107     O      0.543910000000     0.455920000000     0.951850000000    -1.06232    
O108     O      0.456220000000     0.454970000000     0.040060000000    -1.64332    
O109     O      0.606740000000     0.555840000000     0.997100000000    -0.569089   
O110     O      0.386850000000     0.554040000000     0.004790000000    -0.608403   
O111     O      0.555680000000     0.499210000000     0.888590000000    -0.56322    
O112     O      0.555390000000     0.491290000000     0.108130000000    -0.619492   
O113     O      0.440130000000     0.499500000000     0.107580000000    -0.620659   
O114     O      0.437850000000     0.493150000000     0.889510000000    -0.570349   
O115     O      0.497560000000     0.606600000000     0.939460000000    -0.561497   
O116     O      0.493990000000     0.606280000000     0.057280000000    -0.567507   
O117     O      0.498260000000     0.555080000000     0.888530000000    -0.572059   
O118     O      0.492560000000     0.554940000000     0.108310000000    -0.608037   
O119     O      0.606920000000     0.500050000000     0.939870000000    -0.565986   
O120     O      0.386990000000     0.490820000000     0.941060000000    -0.614858   
O121     O      0.388540000000     0.498600000000     0.057270000000    -0.624052   
O122     O      0.606730000000     0.493780000000     0.057130000000    -0.565507   
O123     O      0.555440000000     0.607000000000     0.996490000000    -0.560627   
O124     O      0.437490000000     0.605770000000     0.002560000000    -0.564908   
O125     O      0.457200000000     0.536430000000     0.038530000000    -1.47149    
O126     O      0.536620000000     0.537110000000     0.958550000000    -1.3685     
O127     O      0.455110000000     0.542930000000     0.952340000000    -1.05552    
O128     O      0.543420000000     0.543570000000     0.039840000000    -1.05082    


