data_structure

_audit_creation_method RASPA-1.0
_audit_creation_date 2023-5-19
_audit_author_name 'Poobodin Mano'

_cell_length_a    20.5677
_cell_length_b    20.59
_cell_length_c    20.6196
_cell_angle_alpha 90
_cell_angle_beta  90
_cell_angle_gamma 90
_cell_volume      8732.17

_symmetry_cell_setting          triclinic
_symmetry_space_group_name_Hall 'P 1'
_symmetry_space_group_name_H-M  'P 1'
_symmetry_Int_Tables_number     1

_symmetry_equiv_pos_as_xyz 'x,y,z'

loop_
_atom_site_label
_atom_site_type_symbol
_atom_site_fract_x
_atom_site_fract_y
_atom_site_fract_z
_atom_site_charge
C1       C      0.997400000000     0.156830000000     0.150310000000     0.497889   
C2       C      0.998520000000     0.845260000000     0.157760000000     0.524407   
C3       C      0.839860000000     0.016200000000     0.151090000000     0.52585    
C4       C      0.151520000000     0.991890000000     0.156010000000     0.499667   
C5       C      0.988930000000     0.838910000000     0.847030000000     0.494869   
C6       C      0.019500000000     0.150020000000     0.839610000000     0.528021   
C7       C      0.840130000000     0.845460000000     0.987930000000     0.516813   
C8       C      0.150820000000     0.839550000000     0.018770000000     0.528482   
C9       C      0.156780000000     0.149860000000     0.985940000000     0.529777   
C10      C      0.845790000000     0.157780000000     0.999450000000     0.50447    
C11      C      0.846500000000     0.003350000000     0.839190000000     0.522122   
C12      C      0.157960000000     0.001530000000     0.845180000000     0.505979   
C13      C      0.984080000000     0.347940000000     0.338390000000     0.525698   
C14      C      0.014270000000     0.657410000000     0.347480000000     0.504954   
C15      C      0.841310000000     0.499330000000     0.341800000000     0.53043    
C16      C      0.152180000000     0.510880000000     0.343800000000     0.526649   
C17      C      0.000000000000     0.649670000000     0.657940000000     0.518457   
C18      C      0.001350000000     0.337030000000     0.649920000000     0.50235    
C19      C      0.843400000000     0.656460000000     0.506680000000     0.514526   
C20      C      0.156310000000     0.650030000000     0.501240000000     0.530905   
C21      C      0.149740000000     0.340220000000     0.490850000000     0.503183   
C22      C      0.839190000000     0.343330000000     0.482070000000     0.525821   
C23      C      0.841870000000     0.496050000000     0.655090000000     0.519415   
C24      C      0.153460000000     0.472900000000     0.652200000000     0.527098   
C25      C      0.651390000000     0.995660000000     0.339040000000     0.499656   
C26      C      0.340250000000     0.014670000000     0.343070000000     0.526737   
C27      C      0.494160000000     0.846200000000     0.337790000000     0.512361   
C28      C      0.488160000000     0.157220000000     0.345840000000     0.527162   
C29      C      0.345650000000     0.984580000000     0.655470000000     0.515698   
C30      C      0.656990000000     0.997580000000     0.649480000000     0.50393    
C31      C      0.343170000000     0.841320000000     0.491740000000     0.498849   
C32      C      0.341640000000     0.153570000000     0.500000000000     0.532052   
C33      C      0.652650000000     0.154150000000     0.504900000000     0.500089   
C34      C      0.655530000000     0.843590000000     0.478710000000     0.500526   
C35      C      0.503950000000     0.838060000000     0.648380000000     0.493584   
C36      C      0.500810000000     0.149920000000     0.655420000000     0.508922   
C37      C      0.345170000000     0.339020000000     0.998060000000     0.501102   
C38      C      0.655670000000     0.344100000000     0.016530000000     0.530893   
C39      C      0.500630000000     0.337570000000     0.846740000000     0.533361   
C40      C      0.507060000000     0.344680000000     0.156300000000     0.503279   
C41      C      0.650860000000     0.655610000000     0.997820000000     0.493987   
C42      C      0.338770000000     0.650370000000     0.003630000000     0.502088   
C43      C      0.652880000000     0.508410000000     0.843490000000     0.49702    
C44      C      0.651580000000     0.484550000000     0.155300000000     0.510386   
C45      C      0.341180000000     0.499850000000     0.153320000000     0.499985   
C46      C      0.341240000000     0.484200000000     0.842900000000     0.499706   
C47      C      0.494480000000     0.650320000000     0.840480000000     0.515065   
C48      C      0.493570000000     0.655870000000     0.150770000000     0.5362     
C49      C      0.519590000000     0.229010000000     0.188130000000    -0.0127505  
C50      C      0.521130000000     0.316330000000     0.272650000000    -0.0932043  
C51      C      0.474050000000     0.188670000000     0.230640000000     2.15322e-05
C52      C      0.476690000000     0.275200000000     0.316000000000     0.326029   
C53      C      0.469640000000     0.732600000000     0.308370000000    -0.00834112 
C54      C      0.473550000000     0.818880000000     0.222990000000    -0.0933779  
C55      C      0.507960000000     0.686960000000     0.265010000000     0.0054831  
C56      C      0.510050000000     0.772860000000     0.177930000000     0.329808   
C57      C      0.516890000000     0.721560000000     0.677480000000    -0.00934425 
C58      C      0.524850000000     0.807830000000     0.762550000000    -0.0950115  
C59      C      0.478420000000     0.678690000000     0.724750000000     0.000151495
C60      C      0.483700000000     0.767090000000     0.808580000000     0.32967    
C61      C      0.485010000000     0.264610000000     0.686380000000    -0.00986511 
C62      C      0.480520000000     0.176570000000     0.770420000000    -0.0964726  
C63      C      0.522590000000     0.307530000000     0.733180000000     0.00461386 
C64      C      0.516140000000     0.220540000000     0.818330000000     0.332087   
C65      C      0.683080000000     0.270490000000     0.518500000000    -0.0125303  
C66      C      0.769340000000     0.184760000000     0.509240000000    -0.0974062  
C67      C      0.722170000000     0.314220000000     0.472440000000     0.00206409 
C68      C      0.806140000000     0.227500000000     0.461050000000     0.331209   
C69      C      0.686660000000     0.727320000000     0.466820000000    -0.00992377 
C70      C      0.772030000000     0.813730000000     0.465440000000    -0.0919018  
C71      C      0.727170000000     0.688100000000     0.515320000000     0.000931697
C72      C      0.812740000000     0.774690000000     0.514010000000     0.326713   
C73      C      0.179410000000     0.224230000000     0.476590000000    -0.00912749 
C74      C      0.264270000000     0.310970000000     0.468760000000    -0.0967518  
C75      C      0.226070000000     0.182520000000     0.516640000000     0.00251563 
C76      C      0.310400000000     0.270600000000     0.510180000000     0.333489   
C77      C      0.227530000000     0.810680000000     0.477880000000    -0.00628106 
C78      C      0.314930000000     0.726400000000     0.470300000000    -0.0920345  
C79      C      0.186660000000     0.764700000000     0.519070000000    -0.00150271 
C80      C      0.273980000000     0.679730000000     0.510830000000     0.328484   
C81      C      0.681490000000     0.464920000000     0.270430000000    -0.00734726 
C82      C      0.766370000000     0.461760000000     0.184130000000    -0.0915642  
C83      C      0.725090000000     0.508190000000     0.312170000000     0.0016096  
C84      C      0.810470000000     0.505600000000     0.224450000000     0.328335   
C85      C      0.224820000000     0.489880000000     0.183690000000    -0.00823256 
C86      C      0.311870000000     0.489060000000     0.269290000000    -0.0939796  
C87      C      0.181570000000     0.530410000000     0.228680000000    -0.00119137 
C88      C      0.268720000000     0.530680000000     0.312980000000     0.327787   
C89      C      0.224890000000     0.488850000000     0.811940000000    -0.00845124 
C90      C      0.312740000000     0.488320000000     0.726380000000    -0.0942774  
C91      C      0.181890000000     0.448310000000     0.766740000000     0.000495043
C92      C      0.268960000000     0.446770000000     0.683090000000     0.329838   
C93      C      0.682440000000     0.527150000000     0.728170000000    -0.00959028 
C94      C      0.767940000000     0.528970000000     0.814170000000    -0.0947765  
C95      C      0.726020000000     0.484900000000     0.685440000000     0.00189379 
C96      C      0.811850000000     0.486210000000     0.772440000000     0.329467   
C97      C      0.679540000000     0.772290000000     0.009160000000    -0.0115865  
C98      C      0.766550000000     0.686460000000     0.008720000000    -0.0942512  
C99      C      0.724240000000     0.816870000000     0.969480000000     0.00166234 
C100     C      0.808550000000     0.729760000000     0.965890000000     0.330039   
C101     C      0.815600000000     0.274470000000     0.992610000000    -0.0116254  
C102     C      0.729370000000     0.187500000000     0.994420000000    -0.10083    
C103     C      0.771990000000     0.317040000000     0.035540000000     0.00296401 
C104     C      0.689000000000     0.229130000000     0.040380000000     0.336567   
C105     C      0.308160000000     0.766560000000     0.997540000000    -0.0171544  
C106     C      0.222000000000     0.679460000000     0.998040000000    -0.095309   
C107     C      0.265100000000     0.808290000000     0.041230000000     0.0077346  
C108     C      0.179500000000     0.722740000000     0.041010000000     0.328996   
C109     C      0.315950000000     0.222690000000     0.011380000000    -0.0110489  
C110     C      0.229110000000     0.308570000000     0.005200000000    -0.0942097  
C111     C      0.273260000000     0.177580000000     0.970230000000     0.0022476  
C112     C      0.189420000000     0.264640000000     0.960950000000     0.329929   
C113     C      0.687500000000     0.981790000000     0.764420000000    -0.00972753 
C114     C      0.773010000000     0.983010000000     0.677590000000    -0.0935791  
C115     C      0.731880000000     0.021500000000     0.808340000000     0.00211726 
C116     C      0.818020000000     0.021470000000     0.722350000000     0.32918    
C117     C      0.188670000000     0.015610000000     0.729520000000    -0.012646   
C118     C      0.274510000000     0.013330000000     0.815720000000    -0.0914037  
C119     C      0.230140000000     0.970860000000     0.687190000000     0.00256414 
C120     C      0.316240000000     0.968960000000     0.772960000000     0.326652   
C121     C      0.181590000000     0.982020000000     0.272720000000    -0.0117758  
C122     C      0.267880000000     0.983820000000     0.186730000000    -0.0967962  
C123     C      0.223320000000     0.027610000000     0.314590000000     0.00102561 
C124     C      0.306970000000     0.032290000000     0.226980000000     0.331076   
C125     C      0.767600000000     0.986360000000     0.307490000000    -0.0113542  
C126     C      0.680390000000     0.987870000000     0.222230000000    -0.096246   
C127     C      0.808500000000     0.032640000000     0.266200000000     0.00292008 
C128     C      0.722310000000     0.033620000000     0.181070000000     0.329066   
C129     C      0.994000000000     0.305750000000     0.765720000000    -0.0108683  
C130     C      0.998850000000     0.219930000000     0.678690000000    -0.0956612  
C131     C      0.038970000000     0.264610000000     0.807980000000     0.000642822
C132     C      0.042500000000     0.178850000000     0.722950000000     0.330117   
C133     C      0.970390000000     0.722820000000     0.818620000000    -0.0140391  
C134     C      0.970240000000     0.808240000000     0.732500000000    -0.098856   
C135     C      0.010450000000     0.678070000000     0.774390000000     0.00294765 
C136     C      0.013790000000     0.766170000000     0.690120000000     0.332603   
C137     C      0.031850000000     0.773860000000     0.319360000000    -0.0110064  
C138     C      0.038250000000     0.688560000000     0.233860000000    -0.0904648  
C139     C      0.990390000000     0.816440000000     0.274270000000     0.00253415 
C140     C      0.993830000000     0.728060000000     0.189720000000     0.327406   
C141     C      0.005040000000     0.188590000000     0.266010000000    -0.00565545 
C142     C      0.009920000000     0.273370000000     0.178440000000    -0.0934172  
C143     C      0.962630000000     0.233840000000     0.306680000000    -0.00409258 
C144     C      0.969030000000     0.319100000000     0.220730000000     0.327117   
Eu1      Eu     0.995620000000     0.999780000000     0.113500000000     3.4541     
Eu2      Eu     0.996120000000     0.882870000000     0.000920000000     3.0911     
Eu3      Eu     0.000370000000     0.113310000000     0.995150000000     3.5126     
Eu4      Eu     0.882850000000     0.001020000000     0.996270000000     3.07507    
Eu5      Eu     0.114090000000     0.994630000000     0.999430000000     3.49748    
Eu6      Eu     0.001270000000     0.995870000000     0.882950000000     3.12776    
Eu7      Eu     0.995940000000     0.502460000000     0.383690000000     3.548      
Eu8      Eu     0.999100000000     0.613030000000     0.501920000000     3.06475    
Eu9      Eu     0.994110000000     0.382450000000     0.495480000000     3.50062    
Eu10     Eu     0.880750000000     0.499510000000     0.498460000000     3.03724    
Eu11     Eu     0.111960000000     0.496090000000     0.499070000000     3.56432    
Eu12     Eu     0.997410000000     0.493770000000     0.613950000000     3.06721    
Eu13     Eu     0.495480000000     0.000370000000     0.381830000000     3.52096    
Eu14     Eu     0.382060000000     0.997350000000     0.498590000000     3.05585    
Eu15     Eu     0.613610000000     0.997640000000     0.495270000000     3.4456     
Eu16     Eu     0.498880000000     0.882310000000     0.493440000000     3.0604     
Eu17     Eu     0.496960000000     0.112700000000     0.500570000000     3.57133    
Eu18     Eu     0.500340000000     0.994620000000     0.611780000000     3.04558    
Eu19     Eu     0.500360000000     0.382180000000     0.999800000000     3.56174    
Eu20     Eu     0.613400000000     0.498770000000     0.999200000000     3.09116    
Eu21     Eu     0.382070000000     0.495900000000     0.997630000000     3.43357    
Eu22     Eu     0.497700000000     0.494850000000     0.883190000000     3.01992    
Eu23     Eu     0.497700000000     0.499770000000     0.113730000000     3.54018    
Eu24     Eu     0.495570000000     0.612240000000     0.997070000000     3.07808    
F1       F      0.491370000000     0.289000000000     0.380100000000    -0.420362   
F2       F      0.491240000000     0.787160000000     0.114980000000    -0.429811   
F3       F      0.502270000000     0.782380000000     0.871360000000    -0.429248   
F4       F      0.493640000000     0.205890000000     0.879980000000    -0.424337   
F5       F      0.871630000000     0.212150000000     0.464030000000    -0.442594   
F6       F      0.877770000000     0.788270000000     0.503010000000    -0.420775   
F7       F      0.373400000000     0.285470000000     0.491520000000    -0.410984   
F8       F      0.287930000000     0.617080000000     0.490630000000    -0.40264    
F9       F      0.874270000000     0.489170000000     0.210410000000    -0.409759   
F10      F      0.284260000000     0.516980000000     0.376900000000    -0.407872   
F11      F      0.284920000000     0.458700000000     0.618920000000    -0.418593   
F12      F      0.875710000000     0.502360000000     0.786520000000    -0.437199   
F13      F      0.873160000000     0.713840000000     0.976240000000    -0.41964    
F14      F      0.624090000000     0.212730000000     0.033130000000    -0.423414   
F15      F      0.114890000000     0.708430000000     0.028640000000    -0.403603   
F16      F      0.124370000000     0.280830000000     0.967340000000    -0.44274    
F17      F      0.881520000000     0.004370000000     0.707770000000    -0.419873   
F18      F      0.381030000000     0.980920000000     0.786900000000    -0.431899   
F19      F      0.372120000000     0.025800000000     0.211290000000    -0.438702   
F20      F      0.708060000000     0.023250000000     0.116240000000    -0.432057   
F21      F      0.032480000000     0.113860000000     0.708830000000    -0.425218   
F22      F      0.001370000000     0.781990000000     0.625990000000    -0.418782   
F23      F      0.010390000000     0.713680000000     0.126200000000    -0.394072   
F24      F      0.987160000000     0.382380000000     0.206830000000    -0.415878   
H1       H      0.934780000000     0.942310000000     0.105710000000    -0.176848   
H2       H      0.094370000000     0.092300000000     0.091370000000     0.410184   
H3       H      0.942360000000     0.106330000000     0.934330000000    -0.166008   
H4       H      0.106460000000     0.933730000000     0.941660000000    -0.173815   
H5       H      0.938170000000     0.562950000000     0.393150000000    -0.1818     
H6       H      0.088620000000     0.405760000000     0.399150000000     0.419369   
H7       H      0.934700000000     0.389150000000     0.554730000000    -0.17478    
H8       H      0.105710000000     0.552210000000     0.561220000000    -0.183154   
H9       H      0.435690000000     0.942510000000     0.389370000000    -0.186897   
H10      H      0.590780000000     0.095390000000     0.403270000000     0.41644    
H11      H      0.606980000000     0.936500000000     0.551900000000    -0.174177   
H12      H      0.439290000000     0.101810000000     0.559050000000    -0.215755   
H13      H      0.560580000000     0.390120000000     0.942160000000    -0.196386   
H14      H      0.404960000000     0.402510000000     0.094430000000     0.416153   
H15      H      0.389070000000     0.554040000000     0.937610000000    -0.169054   
H16      H      0.557390000000     0.558270000000     0.105430000000    -0.182043   
H17      H      0.572410000000     0.306890000000     0.286990000000     0.0771449  
H18      H      0.570430000000     0.213490000000     0.198020000000     0.055524   
H19      H      0.482650000000     0.136520000000     0.219890000000     0.0696724  
H20      H      0.511010000000     0.368470000000     0.282140000000     0.0869926  
H21      H      0.425650000000     0.290530000000     0.306900000000    -0.00174654 
H22      H      0.508890000000     0.218010000000     0.136480000000     0.0749009  
H23      H      0.423110000000     0.199880000000     0.216360000000     0.0447641  
H24      H      0.420690000000     0.815500000000     0.212010000000     0.0873744  
H25      H      0.416890000000     0.723250000000     0.300840000000     0.0458414  
H26      H      0.492820000000     0.636470000000     0.276610000000     0.0459566  
H27      H      0.489380000000     0.869360000000     0.212280000000     0.0993987  
H28      H      0.562950000000     0.783180000000     0.182410000000    -0.00704038 
H29      H      0.481150000000     0.720710000000     0.359650000000     0.0490508  
H30      H      0.560450000000     0.691600000000     0.277160000000     0.0348923  
H31      H      0.577030000000     0.797690000000     0.772620000000     0.0816726  
H32      H      0.569020000000     0.707480000000     0.680320000000     0.0394698  
H33      H      0.490870000000     0.627170000000     0.714610000000     0.046742   
H34      H      0.516080000000     0.859900000000     0.773630000000     0.104421   
H35      H      0.431950000000     0.781480000000     0.802360000000     0.000565785
H36      H      0.499850000000     0.711300000000     0.627370000000     0.0473758  
H37      H      0.425760000000     0.684920000000     0.714160000000     0.0423251  
H38      H      0.427330000000     0.181080000000     0.779160000000     0.0916082  
H39      H      0.432450000000     0.276760000000     0.690210000000     0.0541173  
H40      H      0.511060000000     0.358930000000     0.721510000000     0.0470691  
H41      H      0.494460000000     0.125470000000     0.780800000000     0.102686   
H42      H      0.568840000000     0.208560000000     0.816330000000    -0.00446313 
H43      H      0.501050000000     0.276510000000     0.636300000000     0.0627557  
H44      H      0.575460000000     0.300300000000     0.724410000000     0.0364179  
H45      H      0.789110000000     0.193910000000     0.558610000000     0.0848751  
H46      H      0.695650000000     0.284180000000     0.569140000000     0.0424952  
H47      H      0.712960000000     0.365700000000     0.485660000000     0.0441532  
H48      H      0.778820000000     0.133050000000     0.497110000000     0.0881237  
H49      H      0.788650000000     0.215130000000     0.411500000000    -0.0153766  
H50      H      0.630500000000     0.280640000000     0.511540000000     0.0595618  
H51      H      0.703380000000     0.306760000000     0.422400000000     0.0386784  
H52      H      0.788510000000     0.801030000000     0.415650000000     0.0800216  
H53      H      0.698770000000     0.710110000000     0.417130000000     0.0405689  
H54      H      0.716910000000     0.635710000000     0.507630000000     0.0416722  
H55      H      0.781750000000     0.866280000000     0.472840000000     0.089155   
H56      H      0.800330000000     0.792020000000     0.563570000000    -0.000608915
H57      H      0.634350000000     0.717000000000     0.475380000000     0.0441035  
H58      H      0.710400000000     0.700630000000     0.565060000000     0.0361325  
H59      H      0.274610000000     0.300540000000     0.416830000000     0.0861401  
H60      H      0.183840000000     0.209640000000     0.424840000000     0.0359092  
H61      H      0.215690000000     0.130700000000     0.505760000000     0.045127   
H62      H      0.275010000000     0.363160000000     0.477210000000     0.121957   
H63      H      0.304210000000     0.285580000000     0.561650000000     0.00357528 
H64      H      0.128870000000     0.213640000000     0.492440000000     0.0490972  
H65      H      0.215150000000     0.190530000000     0.568870000000     0.0417221  
H66      H      0.305560000000     0.716250000000     0.418130000000     0.0863432  
H67      H      0.212620000000     0.805090000000     0.426320000000     0.0414317  
H68      H      0.134610000000     0.775700000000     0.509810000000     0.0637209  
H69      H      0.367110000000     0.716050000000     0.479690000000     0.089119   
H70      H      0.289260000000     0.684500000000     0.562350000000    -0.0034415  
H71      H      0.216500000000     0.861350000000     0.492820000000     0.0467355  
H72      H      0.196430000000     0.775400000000     0.571050000000     0.0461985  
H73      H      0.778850000000     0.410340000000     0.195130000000     0.0848141  
H74      H      0.690130000000     0.413490000000     0.284540000000     0.0422606  
H75      H      0.715200000000     0.496770000000     0.363890000000     0.0430362  
H76      H      0.776740000000     0.470050000000     0.131910000000     0.0928425  
H77      H      0.802450000000     0.556640000000     0.208700000000    -0.0024634  
H78      H      0.629880000000     0.476500000000     0.281340000000     0.0469396  
H79      H      0.710790000000     0.559620000000     0.303920000000     0.0354926  
H80      H      0.304970000000     0.437210000000     0.282800000000     0.0780181  
H81      H      0.211110000000     0.437930000000     0.189210000000     0.0398775  
H82      H      0.130000000000     0.518410000000     0.218070000000     0.0638365  
H83      H      0.363410000000     0.501770000000     0.279300000000     0.0904861  
H84      H      0.280770000000     0.582540000000     0.303750000000    -0.000416669
H85      H      0.214300000000     0.504220000000     0.132800000000     0.0533452  
H86      H      0.188810000000     0.582570000000     0.216580000000     0.0456351  
H87      H      0.307530000000     0.540010000000     0.711570000000     0.0872745  
H88      H      0.210700000000     0.540720000000     0.806920000000     0.044901   
H89      H      0.130190000000     0.459730000000     0.777310000000     0.0515407  
H90      H      0.364000000000     0.473820000000     0.717310000000     0.0902785  
H91      H      0.279880000000     0.394870000000     0.693450000000    -0.00545076 
H92      H      0.214500000000     0.474010000000     0.862730000000     0.0515315  
H93      H      0.189540000000     0.396150000000     0.778600000000     0.0409288  
H94      H      0.780430000000     0.580670000000     0.804630000000     0.0851023  
H95      H      0.690500000000     0.578840000000     0.714710000000     0.0406668  
H96      H      0.715570000000     0.496890000000     0.633950000000     0.0415249  
H97      H      0.778580000000     0.519000000000     0.866040000000     0.0918765  
H98      H      0.803970000000     0.434780000000     0.786940000000    -0.00838995 
H99      H      0.630870000000     0.515290000000     0.717380000000     0.0451767  
H100     H      0.712290000000     0.433220000000     0.693140000000     0.0359676  
H101     H      0.780870000000     0.694170000000     0.060170000000     0.0921204  
H102     H      0.684650000000     0.785410000000     0.061230000000     0.0565348  
H103     H      0.713950000000     0.867980000000     0.983370000000     0.0605851  
H104     H      0.777170000000     0.635040000000     0.996240000000     0.0952528  
H105     H      0.796890000000     0.718400000000     0.914440000000    -0.0078866  
H106     H      0.628390000000     0.782240000000     0.994920000000     0.0787456  
H107     H      0.711410000000     0.811360000000     0.917370000000     0.0452153  
H108     H      0.712420000000     0.196340000000     0.943950000000     0.0885058  
H109     H      0.808240000000     0.289280000000     0.941280000000     0.0459667  
H110     H      0.781420000000     0.368820000000     0.023730000000     0.0517414  
H111     H      0.719840000000     0.135670000000     0.006020000000     0.114262   
H112     H      0.703590000000     0.216940000000     0.090900000000    -0.0038092  
H113     H      0.867180000000     0.284440000000     0.005210000000     0.056451   
H114     H      0.786680000000     0.309410000000     0.086900000000     0.0423181  
H115     H      0.206680000000     0.686160000000     0.946750000000     0.083843   
H116     H      0.300360000000     0.781850000000     0.946400000000     0.0545438  
H117     H      0.276500000000     0.860200000000     0.032020000000     0.0524423  
H118     H      0.212600000000     0.627980000000     0.011240000000     0.0915419  
H119     H      0.189700000000     0.709950000000     0.092430000000    -0.00099904 
H120     H      0.359740000000     0.776720000000     0.009980000000     0.0797273  
H121     H      0.278080000000     0.797780000000     0.092550000000     0.0436782  
H122     H      0.212260000000     0.301490000000     0.055980000000     0.0728522  
H123     H      0.308060000000     0.210490000000     0.063330000000     0.0376423  
H124     H      0.282890000000     0.126640000000     0.985150000000     0.0503578  
H125     H      0.219070000000     0.359800000000     0.991550000000     0.0875706  
H126     H      0.203990000000     0.274960000000     0.910010000000    -0.00898656 
H127     H      0.367740000000     0.212440000000     0.999970000000     0.0683068  
H128     H      0.288520000000     0.182490000000     0.918700000000     0.0481537  
H129     H      0.785120000000     0.930550000000     0.682140000000     0.0873222  
H130     H      0.694040000000     0.929480000000     0.776230000000     0.0456572  
H131     H      0.720370000000     0.008750000000     0.859420000000     0.0542157  
H132     H      0.783210000000     0.997710000000     0.626740000000     0.0925116  
H133     H      0.811890000000     0.073950000000     0.711120000000    -0.00277791 
H134     H      0.636340000000     0.994910000000     0.775740000000     0.0565297  
H135     H      0.720170000000     0.073810000000     0.801580000000     0.0429671  
H136     H      0.289930000000     0.064440000000     0.807410000000     0.0845247  
H137     H      0.198970000000     0.066700000000     0.715310000000     0.0548056  
H138     H      0.219210000000     0.981560000000     0.635540000000     0.0481437  
H139     H      0.284330000000     0.001520000000     0.867380000000     0.09038    
H140     H      0.305490000000     0.917840000000     0.786720000000    -0.00485377 
H141     H      0.136610000000     0.005990000000     0.718900000000     0.0762252  
H142     H      0.215030000000     0.919870000000     0.696700000000     0.0412405  
H143     H      0.285420000000     0.934000000000     0.198160000000     0.0819309  
H144     H      0.191430000000     0.931240000000     0.288240000000     0.041108   
H145     H      0.214050000000     0.016440000000     0.366470000000     0.0422316  
H146     H      0.277870000000     0.993030000000     0.134600000000     0.0883751  
H147     H      0.291430000000     0.082050000000     0.212740000000    -0.0154822  
H148     H      0.129480000000     0.992230000000     0.282570000000     0.0422745  
H149     H      0.206670000000     0.078240000000     0.305810000000     0.0310149  
H150     H      0.689260000000     0.937200000000     0.205740000000     0.0862388  
H151     H      0.783320000000     0.935790000000     0.296870000000     0.043852   
H152     H      0.860650000000     0.023680000000     0.276930000000     0.0450293  
H153     H      0.628380000000     0.999180000000     0.213050000000     0.0933785  
H154     H      0.708020000000     0.084310000000     0.193130000000    -0.00813488 
H155     H      0.778210000000     0.996080000000     0.359410000000     0.0480108  
H156     H      0.797270000000     0.083250000000     0.281420000000     0.0362462  
H157     H      0.947850000000     0.202890000000     0.684310000000     0.0936545  
H158     H      0.942910000000     0.295710000000     0.780290000000     0.0499579  
H159     H      0.028840000000     0.275910000000     0.859660000000     0.0714182  
H160     H      0.013480000000     0.211220000000     0.627540000000     0.0952129  
H161     H      0.093890000000     0.190570000000     0.710860000000    -0.00990104 
H162     H      0.004030000000     0.357700000000     0.776290000000     0.0612134  
H163     H      0.090030000000     0.279320000000     0.797840000000     0.0474704  
H164     H      0.918720000000     0.798500000000     0.719250000000     0.0950782  
H165     H      0.918120000000     0.710490000000     0.812300000000     0.0626603  
H166     H      0.995350000000     0.627120000000     0.783800000000     0.0659564  
H167     H      0.980400000000     0.860070000000     0.721460000000     0.111538   
H168     H      0.065220000000     0.779060000000     0.700740000000    -0.00721204 
H169     H      0.983440000000     0.712420000000     0.869860000000     0.0858687  
H170     H      0.062460000000     0.682480000000     0.788470000000     0.0446831  
H171     H      0.089550000000     0.701240000000     0.222280000000     0.0862968  
H172     H      0.083600000000     0.788420000000     0.313500000000     0.042365   
H173     H      0.002890000000     0.868070000000     0.283720000000     0.0453825  
H174     H      0.031700000000     0.636180000000     0.222720000000     0.105607   
H175     H      0.942920000000     0.711830000000     0.197910000000     0.00551364 
H176     H      0.017730000000     0.783900000000     0.370400000000     0.0610748  
H177     H      0.938470000000     0.809720000000     0.287750000000     0.0424256  
H178     H      0.062120000000     0.285560000000     0.185600000000     0.0771825  
H179     H      0.056450000000     0.194680000000     0.281580000000     0.0315215  
H180     H      0.970830000000     0.222350000000     0.358660000000     0.0680173  
H181     H      0.997970000000     0.283020000000     0.126770000000     0.0953428  
H182     H      0.917200000000     0.313080000000     0.206570000000     0.00158724 
H183     H      0.990560000000     0.137730000000     0.276740000000     0.0443647  
H184     H      0.910800000000     0.222890000000     0.295770000000     0.0494617  
N1       N      0.482820000000     0.205300000000     0.299800000000    -0.214662   
N2       N      0.513070000000     0.298500000000     0.203870000000    -0.176604   
N3       N      0.498550000000     0.704070000000     0.196190000000    -0.217142   
N4       N      0.483940000000     0.800460000000     0.291040000000    -0.177024   
N5       N      0.490230000000     0.697120000000     0.793080000000    -0.212091   
N6       N      0.510850000000     0.790730000000     0.694640000000    -0.171658   
N7       N      0.507770000000     0.289870000000     0.800930000000    -0.215848   
N8       N      0.494150000000     0.195660000000     0.702970000000    -0.174006   
N9       N      0.791810000000     0.296860000000     0.473890000000    -0.215546   
N10      N      0.699620000000     0.201360000000     0.508690000000    -0.176529   
N11      N      0.796920000000     0.704520000000     0.509600000000    -0.210397   
N12      N      0.702660000000     0.796920000000     0.471750000000    -0.175398   
N13      N      0.294560000000     0.200630000000     0.504440000000    -0.215231   
N14      N      0.196270000000     0.293430000000     0.482610000000    -0.176768   
N15      N      0.204040000000     0.696320000000     0.505940000000    -0.211285   
N16      N      0.296890000000     0.794250000000     0.483960000000    -0.175485   
N17      N      0.794360000000     0.500440000000     0.294450000000    -0.213685   
N18      N      0.697970000000     0.473120000000     0.201490000000    -0.177108   
N19      N      0.199270000000     0.520030000000     0.297300000000    -0.214624   
N20      N      0.294170000000     0.497270000000     0.200470000000    -0.17937    
N21      N      0.199830000000     0.459310000000     0.698360000000    -0.213137   
N22      N      0.294480000000     0.482410000000     0.795410000000    -0.174048   
N23      N      0.795270000000     0.493150000000     0.702720000000    -0.213399   
N24      N      0.699370000000     0.518300000000     0.797000000000    -0.174174   
N25      N      0.793160000000     0.798930000000     0.978300000000    -0.211035   
N26      N      0.697320000000     0.703270000000     0.001180000000    -0.16934    
N27      N      0.703020000000     0.298500000000     0.028240000000    -0.215995   
N28      N      0.798820000000     0.205030000000     0.998960000000    -0.172427   
N29      N      0.196100000000     0.791960000000     0.030810000000    -0.213611   
N30      N      0.291310000000     0.697120000000     0.003690000000    -0.170869   
N31      N      0.204080000000     0.195810000000     0.975700000000    -0.219306   
N32      N      0.298600000000     0.291550000000     0.001220000000    -0.177398   
N33      N      0.800710000000     0.010730000000     0.791310000000    -0.212225   
N34      N      0.704380000000     0.992250000000     0.695760000000    -0.175342   
N35      N      0.299690000000     0.977860000000     0.703480000000    -0.212109   
N36      N      0.205250000000     0.007140000000     0.798610000000    -0.172844   
N37      N      0.292750000000     0.022760000000     0.296760000000    -0.215693   
N38      N      0.198300000000     0.988320000000     0.203370000000    -0.178246   
N39      N      0.792070000000     0.025050000000     0.196950000000    -0.2147     
N40      N      0.697940000000     0.992780000000     0.291430000000    -0.177586   
N41      N      0.030970000000     0.195360000000     0.791960000000    -0.211173   
N42      N      0.001780000000     0.289300000000     0.696380000000    -0.172585   
N43      N      0.003880000000     0.696420000000     0.705400000000    -0.210502   
N44      N      0.979990000000     0.791600000000     0.801140000000    -0.167913   
N45      N      0.998430000000     0.798290000000     0.205250000000    -0.211498   
N46      N      0.025290000000     0.704800000000     0.302070000000    -0.172742   
N47      N      0.975790000000     0.302370000000     0.290270000000    -0.213505   
N48      N      0.999960000000     0.204740000000     0.196520000000    -0.179527   
O1       O      0.999040000000     0.174710000000     0.087370000000    -0.619485   
O2       O      0.995600000000     0.825870000000     0.095480000000    -0.512903   
O3       O      0.902220000000     0.014000000000     0.171420000000    -0.608953   
O4       O      0.088550000000     0.994140000000     0.174370000000    -0.615963   
O5       O      0.171550000000     0.992820000000     0.093760000000    -0.62741    
O6       O      0.822090000000     0.010310000000     0.088470000000    -0.528722   
O7       O      0.999740000000     0.908230000000     0.176030000000    -0.607326   
O8       O      0.995590000000     0.094600000000     0.170660000000    -0.623557   
O9       O      0.060060000000     0.935120000000     0.064690000000    -1.47552    
O10      O      0.935470000000     0.065110000000     0.059900000000    -1.47044    
O11      O      0.921500000000     0.927500000000     0.064950000000    -1.06176    
O12      O      0.065770000000     0.064530000000     0.064460000000    -1.62747    
O13      O      0.991770000000     0.820750000000     0.909740000000    -0.539088   
O14      O      0.015140000000     0.170840000000     0.901580000000    -0.590915   
O15      O      0.821670000000     0.908390000000     0.989810000000    -0.558403   
O16      O      0.171740000000     0.901520000000     0.014780000000    -0.613779   
O17      O      0.175130000000     0.087130000000     0.991290000000    -0.624455   
O18      O      0.825890000000     0.095490000000     0.998020000000    -0.562565   
O19      O      0.909500000000     0.000520000000     0.821760000000    -0.522312   
O20      O      0.095680000000     0.997940000000     0.825320000000    -0.561799   
O21      O      0.825910000000     0.002780000000     0.901340000000    -0.562654   
O22      O      0.176350000000     0.000570000000     0.908020000000    -0.605218   
O23      O      0.902180000000     0.825690000000     0.993700000000    -0.514722   
O24      O      0.908840000000     0.176080000000     0.999570000000    -0.605972   
O25      O      0.094630000000     0.169910000000     0.988580000000    -0.59056    
O26      O      0.088060000000     0.822030000000     0.012450000000    -0.515056   
O27      O      0.993130000000     0.901030000000     0.826600000000    -0.558638   
O28      O      0.013880000000     0.087320000000     0.822100000000    -0.521188   
O29      O      0.065040000000     0.059000000000     0.935470000000    -1.49499    
O30      O      0.935040000000     0.935380000000     0.935090000000    -1.39467    
O31      O      0.928210000000     0.064890000000     0.922100000000    -1.08128    
O32      O      0.065250000000     0.920910000000     0.927270000000    -1.07439    
O33      O      0.986610000000     0.326760000000     0.400230000000    -0.613677   
O34      O      0.009150000000     0.675080000000     0.410280000000    -0.551143   
O35      O      0.904030000000     0.499540000000     0.323240000000    -0.567492   
O36      O      0.089590000000     0.508110000000     0.324400000000    -0.617054   
O37      O      0.170930000000     0.506450000000     0.406200000000    -0.572791   
O38      O      0.821980000000     0.499940000000     0.404360000000    -0.573703   
O39      O      0.010140000000     0.595560000000     0.326590000000    -0.600377   
O40      O      0.988130000000     0.411040000000     0.321450000000    -0.57432    
O41      O      0.062140000000     0.561720000000     0.436790000000    -1.49547    
O42      O      0.932360000000     0.437140000000     0.432840000000    -1.48057    
O43      O      0.924240000000     0.575090000000     0.434570000000    -1.06355    
O44      O      0.062000000000     0.432220000000     0.429210000000    -1.65764    
O45      O      0.999300000000     0.669580000000     0.595890000000    -0.520972   
O46      O      0.001470000000     0.319350000000     0.586750000000    -0.593882   
O47      O      0.823060000000     0.594150000000     0.504340000000    -0.567431   
O48      O      0.174160000000     0.587160000000     0.498500000000    -0.555725   
O49      O      0.169680000000     0.402440000000     0.493420000000    -0.613185   
O50      O      0.820630000000     0.406000000000     0.488380000000    -0.566362   
O51      O      0.904650000000     0.494800000000     0.673340000000    -0.530113   
O52      O      0.091320000000     0.480150000000     0.671940000000    -0.566139   
O53      O      0.822110000000     0.497750000000     0.592620000000    -0.567952   
O54      O      0.172150000000     0.477190000000     0.589730000000    -0.558607   
O55      O      0.906540000000     0.674040000000     0.505830000000    -0.509731   
O56      O      0.901620000000     0.323820000000     0.483360000000    -0.570947   
O57      O      0.086890000000     0.321590000000     0.492710000000    -0.624525   
O58      O      0.093940000000     0.670080000000     0.502510000000    -0.560171   
O59      O      0.999430000000     0.586480000000     0.675850000000    -0.55012    
O60      O      0.999010000000     0.399080000000     0.670350000000    -0.56404    
O61      O      0.059940000000     0.430080000000     0.559500000000    -1.48448    
O62      O      0.934390000000     0.560060000000     0.564160000000    -1.36953    
O63      O      0.922060000000     0.430090000000     0.569830000000    -1.06209    
O64      O      0.064950000000     0.567280000000     0.574500000000    -1.06842    
O65      O      0.671530000000     0.996540000000     0.401220000000    -0.621974   
O66      O      0.321750000000     0.008300000000     0.405610000000    -0.567047   
O67      O      0.496610000000     0.909120000000     0.319640000000    -0.604834   
O68      O      0.490550000000     0.095170000000     0.325120000000    -0.620551   
O69      O      0.490330000000     0.174450000000     0.408850000000    -0.578705   
O70      O      0.496520000000     0.825750000000     0.399620000000    -0.582411   
O71      O      0.402730000000     0.013590000000     0.323570000000    -0.565508   
O72      O      0.588340000000     0.997060000000     0.320910000000    -0.621881   
O73      O      0.433310000000     0.063340000000     0.435830000000    -1.48395    
O74      O      0.561560000000     0.936380000000     0.429630000000    -1.46568    
O75      O      0.423520000000     0.926310000000     0.429850000000    -1.06104    
O76      O      0.563640000000     0.066710000000     0.430740000000    -1.6523     
O77      O      0.324990000000     0.988660000000     0.593410000000    -0.566164   
O78      O      0.675430000000     0.000130000000     0.586740000000    -0.603145   
O79      O      0.405940000000     0.822590000000     0.492970000000    -0.566337   
O80      O      0.404280000000     0.172470000000     0.497380000000    -0.561739   
O81      O      0.589880000000     0.172950000000     0.505250000000    -0.620797   
O82      O      0.593040000000     0.824090000000     0.482820000000    -0.567003   
O83      O      0.503140000000     0.900250000000     0.668610000000    -0.55108    
O84      O      0.500480000000     0.086840000000     0.672980000000    -0.559644   
O85      O      0.501470000000     0.820070000000     0.585450000000    -0.560968   
O86      O      0.503010000000     0.170680000000     0.593550000000    -0.609335   
O87      O      0.323360000000     0.903700000000     0.494300000000    -0.568116   
O88      O      0.674450000000     0.906260000000     0.481470000000    -0.598319   
O89      O      0.672150000000     0.091690000000     0.501030000000    -0.620068   
O90      O      0.322650000000     0.090890000000     0.501260000000    -0.576042   
O91      O      0.408700000000     0.986410000000     0.672870000000    -0.520084   
O92      O      0.594610000000     0.996610000000     0.669310000000    -0.567848   
O93      O      0.563510000000     0.060650000000     0.560900000000    -1.46681    
O94      O      0.435700000000     0.931880000000     0.559530000000    -1.36786    
O95      O      0.566430000000     0.922440000000     0.566620000000    -1.06533    
O96      O      0.425180000000     0.061310000000     0.573310000000    -1.04188    
O97      O      0.325010000000     0.401290000000     0.996770000000    -0.622489   
O98      O      0.674220000000     0.406390000000     0.008350000000    -0.573312   
O99      O      0.498160000000     0.319840000000     0.909470000000    -0.578331   
O100     O      0.505450000000     0.324510000000     0.094100000000    -0.607887   
O101     O      0.503670000000     0.407470000000     0.174550000000    -0.623346   
O102     O      0.500350000000     0.399850000000     0.826510000000    -0.577745   
O103     O      0.593270000000     0.324380000000     0.014780000000    -0.560629   
O104     O      0.408110000000     0.320780000000     0.998670000000    -0.618707   
O105     O      0.561050000000     0.435810000000     0.063430000000    -1.50281    
O106     O      0.434250000000     0.430520000000     0.935950000000    -1.46011    
O107     O      0.573280000000     0.430690000000     0.926360000000    -1.05391    
O108     O      0.431810000000     0.430530000000     0.066040000000    -1.64916    
O109     O      0.670930000000     0.593260000000     0.999580000000    -0.566646   
O110     O      0.320270000000     0.587490000000     0.004080000000    -0.600385   
O111     O      0.590500000000     0.503890000000     0.824080000000    -0.564396   
O112     O      0.589040000000     0.487750000000     0.174460000000    -0.610723   
O113     O      0.403850000000     0.501270000000     0.172470000000    -0.633865   
O114     O      0.404050000000     0.486890000000     0.824210000000    -0.564047   
O115     O      0.495150000000     0.669730000000     0.902860000000    -0.520261   
O116     O      0.494010000000     0.673150000000     0.088040000000    -0.54017    
O117     O      0.495150000000     0.587400000000     0.822080000000    -0.558134   
O118     O      0.492300000000     0.593720000000     0.171500000000    -0.626152   
O119     O      0.672300000000     0.505160000000     0.905890000000    -0.570041   
O120     O      0.321730000000     0.485530000000     0.905390000000    -0.598988   
O121     O      0.322060000000     0.498460000000     0.090750000000    -0.616457   
O122     O      0.671240000000     0.490480000000     0.093190000000    -0.566708   
O123     O      0.587880000000     0.673740000000     0.995560000000    -0.538012   
O124     O      0.401200000000     0.670050000000     0.001110000000    -0.549605   
O125     O      0.431660000000     0.560700000000     0.061940000000    -1.4649     
O126     O      0.560150000000     0.560480000000     0.934510000000    -1.37709    
O127     O      0.430000000000     0.568170000000     0.923890000000    -1.06456    
O128     O      0.570140000000     0.572460000000     0.064280000000    -1.06935    


