data_structure

_audit_creation_method RASPA-1.0
_audit_creation_date 2023-5-19
_audit_author_name 'Poobodin Mano'

_cell_length_a    32.8499
_cell_length_b    32.9158
_cell_length_c    32.8951
_cell_angle_alpha 90
_cell_angle_beta  90
_cell_angle_gamma 90
_cell_volume      35568.8

_symmetry_cell_setting          triclinic
_symmetry_space_group_name_Hall 'P 1'
_symmetry_space_group_name_H-M  'P 1'
_symmetry_Int_Tables_number     1

_symmetry_equiv_pos_as_xyz 'x,y,z'

loop_
_atom_site_label
_atom_site_type_symbol
_atom_site_fract_x
_atom_site_fract_y
_atom_site_fract_z
_atom_site_charge
C1       C      0.993230000000     0.094410000000     0.096160000000     0.503644   
C2       C      0.999650000000     0.899860000000     0.096240000000     0.506966   
C3       C      0.898410000000     0.004570000000     0.094460000000     0.508682   
C4       C      0.092120000000     0.993130000000     0.098930000000     0.510164   
C5       C      0.996810000000     0.899740000000     0.901290000000     0.497891   
C6       C      0.007650000000     0.096010000000     0.901830000000     0.509473   
C7       C      0.898410000000     0.901490000000     0.994760000000     0.496852   
C8       C      0.094720000000     0.899090000000     0.006200000000     0.511154   
C9       C      0.097150000000     0.093010000000     0.998380000000     0.508583   
C10      C      0.901470000000     0.096780000000     0.000490000000     0.513516   
C11      C      0.903290000000     0.997000000000     0.897950000000     0.499578   
C12      C      0.098910000000     0.001800000000     0.904340000000     0.513081   
C13      C      0.995700000000     0.401620000000     0.399520000000     0.505946   
C14      C      0.000400000000     0.596160000000     0.401250000000     0.520067   
C15      C      0.900720000000     0.493110000000     0.399910000000     0.511315   
C16      C      0.096470000000     0.502890000000     0.402550000000     0.509812   
C17      C      0.993790000000     0.594510000000     0.596650000000     0.495351   
C18      C      0.003800000000     0.398270000000     0.594530000000     0.508599   
C19      C      0.899760000000     0.594610000000     0.499830000000     0.49846    
C20      C      0.096960000000     0.593890000000     0.495240000000     0.508309   
C21      C      0.095150000000     0.399750000000     0.501090000000     0.508733   
C22      C      0.901220000000     0.398740000000     0.489220000000     0.510093   
C23      C      0.899340000000     0.495810000000     0.595570000000     0.500903   
C24      C      0.094550000000     0.490860000000     0.597570000000     0.511225   
C25      C      0.593340000000     0.992870000000     0.399140000000     0.504096   
C26      C      0.398560000000     0.001430000000     0.401790000000     0.510596   
C27      C      0.500490000000     0.899230000000     0.400450000000     0.511461   
C28      C      0.492450000000     0.093790000000     0.400370000000     0.506682   
C29      C      0.400890000000     0.997000000000     0.596960000000     0.499518   
C30      C      0.597060000000     0.000680000000     0.594150000000     0.51495    
C31      C      0.399310000000     0.899700000000     0.502120000000     0.495733   
C32      C      0.401250000000     0.095920000000     0.494060000000     0.510602   
C33      C      0.596570000000     0.093090000000     0.498640000000     0.506545   
C34      C      0.595420000000     0.899340000000     0.491030000000     0.510629   
C35      C      0.494500000000     0.899730000000     0.596480000000     0.498599   
C36      C      0.505880000000     0.095270000000     0.595460000000     0.508296   
C37      C      0.401580000000     0.398640000000     0.001380000000     0.50691    
C38      C      0.397600000000     0.592550000000     0.993890000000     0.510242   
C39      C      0.399760000000     0.490710000000     0.095640000000     0.509633   
C40      C      0.400740000000     0.498460000000     0.901000000000     0.508825   
C41      C      0.594230000000     0.595710000000     0.999910000000     0.500052   
C42      C      0.596980000000     0.400820000000     0.993460000000     0.511101   
C43      C      0.499350000000     0.593980000000     0.096590000000     0.502097   
C44      C      0.490310000000     0.593880000000     0.900030000000     0.510946   
C45      C      0.502900000000     0.400240000000     0.900540000000     0.507075   
C46      C      0.493240000000     0.399130000000     0.095940000000     0.509394   
C47      C      0.595870000000     0.500120000000     0.095230000000     0.502191   
C48      C      0.595500000000     0.493420000000     0.900640000000     0.513092   
C49      C      0.484150000000     0.145960000000     0.300590000000    -0.102389   
C50      C      0.492000000000     0.381260000000     0.166140000000     0.0886024  
C51      C      0.488250000000     0.329600000000     0.116080000000     0.0888328  
C52      C      0.490670000000     0.352280000000     0.197080000000    -0.103183   
C53      C      0.513210000000     0.282750000000     0.253790000000    -0.0349689  
C54      C      0.512930000000     0.252900000000     0.284040000000    -0.0347123  
C55      C      0.487100000000     0.279780000000     0.220030000000    -0.00897677 
C56      C      0.486610000000     0.299810000000     0.146340000000    -0.103546   
C57      C      0.486450000000     0.219460000000     0.281280000000    -0.00911784 
C58      C      0.492030000000     0.195210000000     0.353630000000    -0.103597   
C59      C      0.459810000000     0.216970000000     0.247870000000    -0.0346467  
C60      C      0.493290000000     0.163660000000     0.382040000000     0.0837284  
C61      C      0.485240000000     0.114780000000     0.329560000000     0.0920529  
C62      C      0.460240000000     0.246690000000     0.217550000000    -0.0346681  
C63      C      0.479700000000     0.074240000000     0.313600000000     0.048832   
C64      C      0.488050000000     0.310990000000     0.187410000000     0.0561619  
C65      C      0.487470000000     0.186570000000     0.312330000000     0.0556145  
C66      C      0.504060000000     0.644920000000     0.197130000000    -0.102783   
C67      C      0.497300000000     0.880360000000     0.330680000000     0.0908852  
C68      C      0.506000000000     0.829610000000     0.380990000000     0.0885214  
C69      C      0.498210000000     0.851110000000     0.300050000000    -0.102364   
C70      C      0.477180000000     0.781270000000     0.244120000000    -0.0345049  
C71      C      0.477520000000     0.751490000000     0.213860000000    -0.0346267  
C72      C      0.503620000000     0.778540000000     0.277670000000    -0.00883682 
C73      C      0.506930000000     0.799480000000     0.351080000000    -0.103205   
C74      C      0.504120000000     0.718220000000     0.216590000000    -0.009054   
C75      C      0.501080000000     0.694830000000     0.144110000000    -0.102781   
C76      C      0.530780000000     0.715610000000     0.249920000000    -0.0348738  
C77      C      0.499980000000     0.663620000000     0.115430000000     0.0856661  
C78      C      0.502660000000     0.614010000000     0.167920000000     0.0937579  
C79      C      0.530570000000     0.745460000000     0.280090000000    -0.0344599  
C80      C      0.503290000000     0.572960000000     0.183820000000     0.0456554  
C81      C      0.503040000000     0.810070000000     0.309990000000     0.0563082  
C82      C      0.503260000000     0.685640000000     0.185450000000     0.0565688  
C83      C      0.486900000000     0.847680000000     0.696380000000    -0.101948   
C84      C      0.487020000000     0.611770000000     0.829900000000     0.0902731  
C85      C      0.486220000000     0.663490000000     0.880040000000     0.0874977  
C86      C      0.485800000000     0.640810000000     0.799010000000    -0.104972   
C87      C      0.510000000000     0.709440000000     0.742010000000    -0.0347383  
C88      C      0.510620000000     0.739440000000     0.711920000000    -0.034885   
C89      C      0.484640000000     0.713440000000     0.776220000000    -0.00948654 
C90      C      0.484770000000     0.693340000000     0.849850000000    -0.103522   
C91      C      0.485830000000     0.774080000000     0.715330000000    -0.00885155 
C92      C      0.491060000000     0.798310000000     0.643020000000    -0.102376   
C93      C      0.459910000000     0.777650000000     0.749200000000    -0.0350308  
C94      C      0.493140000000     0.829850000000     0.614680000000     0.0853378  
C95      C      0.488840000000     0.878880000000     0.667480000000     0.093451   
C96      C      0.459420000000     0.747750000000     0.779340000000    -0.0346654  
C97      C      0.486200000000     0.919630000000     0.683680000000     0.0461904  
C98      C      0.484890000000     0.682160000000     0.808760000000     0.0563635  
C99      C      0.487860000000     0.807020000000     0.684420000000     0.0560034  
C100     C      0.511610000000     0.147370000000     0.695360000000    -0.102361   
C101     C      0.504560000000     0.382420000000     0.830280000000     0.0863497  
C102     C      0.506010000000     0.330640000000     0.880310000000     0.0851702  
C103     C      0.505460000000     0.353430000000     0.799310000000    -0.104661   
C104     C      0.529370000000     0.286220000000     0.740520000000    -0.034619   
C105     C      0.529530000000     0.256500000000     0.710080000000    -0.0349436  
C106     C      0.506500000000     0.280700000000     0.776290000000    -0.00942917 
C107     C      0.506950000000     0.300830000000     0.850050000000    -0.104025   
C108     C      0.506940000000     0.220560000000     0.714810000000    -0.0089361  
C109     C      0.506420000000     0.196760000000     0.642100000000    -0.103292   
C110     C      0.483650000000     0.215340000000     0.750300000000    -0.0350818  
C111     C      0.506480000000     0.165240000000     0.613590000000     0.0872914  
C112     C      0.511840000000     0.116270000000     0.666330000000     0.0944514  
C113     C      0.483420000000     0.245010000000     0.780630000000    -0.0346591  
C114     C      0.517000000000     0.075710000000     0.682370000000     0.0479325  
C115     C      0.506470000000     0.312030000000     0.808930000000     0.055168   
C116     C      0.508340000000     0.187940000000     0.683570000000     0.0565711  
C117     C      0.697630000000     0.143720000000     0.496450000000    -0.102977   
C118     C      0.831930000000     0.379320000000     0.479610000000     0.0905953  
C119     C      0.882190000000     0.328780000000     0.489660000000     0.0899254  
C120     C      0.801300000000     0.349860000000     0.479550000000    -0.0987928  
C121     C      0.743980000000     0.279250000000     0.462930000000    -0.0347956  
C122     C      0.713610000000     0.249540000000     0.465620000000    -0.03466    
C123     C      0.778840000000     0.277210000000     0.487750000000    -0.00789663 
C124     C      0.852390000000     0.298500000000     0.489550000000    -0.102402   
C125     C      0.717510000000     0.216990000000     0.492990000000    -0.00921417 
C126     C      0.644680000000     0.193800000000     0.494970000000    -0.103545   
C127     C      0.752160000000     0.215080000000     0.517960000000    -0.0346202  
C128     C      0.615790000000     0.162690000000     0.496720000000     0.0831922  
C129     C      0.668200000000     0.112910000000     0.497820000000     0.0912187  
C130     C      0.782360000000     0.244850000000     0.515470000000    -0.0344209  
C131     C      0.683960000000     0.071800000000     0.498670000000     0.0440186  
C132     C      0.811210000000     0.308860000000     0.485310000000     0.055603   
C133     C      0.686120000000     0.184500000000     0.494890000000     0.0554504  
C134     C      0.800090000000     0.647220000000     0.503050000000    -0.101258   
C135     C      0.665120000000     0.881010000000     0.483000000000     0.0900458  
C136     C      0.615310000000     0.829610000000     0.491430000000     0.0878148  
C137     C      0.695930000000     0.851880000000     0.481500000000    -0.103768   
C138     C      0.756650000000     0.787000000000     0.505060000000    -0.0339475  
C139     C      0.786960000000     0.757220000000     0.506260000000    -0.0350889  
C140     C      0.719150000000     0.779330000000     0.485800000000    -0.00926244 
C141     C      0.645460000000     0.799680000000     0.490350000000    -0.103181   
C142     C      0.780340000000     0.718980000000     0.488550000000    -0.00807125 
C143     C      0.852570000000     0.694500000000     0.484860000000    -0.0998557  
C144     C      0.743150000000     0.711430000000     0.468840000000    -0.0352747  
C145     C      0.881180000000     0.663310000000     0.488200000000     0.0878431  
C146     C      0.829380000000     0.616520000000     0.506810000000     0.0954248  
C147     C      0.712960000000     0.741280000000     0.467360000000    -0.0340404  
C148     C      0.814700000000     0.578090000000     0.522150000000     0.0493436  
C149     C      0.686440000000     0.810630000000     0.485630000000     0.0562714  
C150     C      0.811460000000     0.686500000000     0.491890000000     0.0562238  
C151     C      0.146830000000     0.299460000000     0.500370000000    -0.103036   
C152     C      0.383100000000     0.166040000000     0.492000000000     0.090406   
C153     C      0.331430000000     0.115830000000     0.493960000000     0.0884719  
C154     C      0.353900000000     0.196850000000     0.492800000000    -0.104153   
C155     C      0.284660000000     0.255100000000     0.473600000000    -0.0347038  
C156     C      0.254730000000     0.285270000000     0.475520000000    -0.0348771  
C157     C      0.280990000000     0.219380000000     0.496810000000    -0.00877907 
C158     C      0.301440000000     0.145890000000     0.494760000000    -0.101898   
C159     C      0.220450000000     0.280330000000     0.500590000000    -0.00899401 
C160     C      0.196530000000     0.352770000000     0.502280000000    -0.102948   
C161     C      0.217070000000     0.244880000000     0.524180000000    -0.0345379  
C162     C      0.165050000000     0.381280000000     0.502530000000     0.0839224  
C163     C      0.115680000000     0.328510000000     0.500410000000     0.0919217  
C164     C      0.246980000000     0.214800000000     0.522340000000    -0.0344032  
C165     C      0.074660000000     0.312390000000     0.498770000000     0.0445983  
C166     C      0.312480000000     0.187000000000     0.494580000000     0.0564031  
C167     C      0.187600000000     0.311340000000     0.501240000000     0.0558218  
C168     C      0.157920000000     0.683170000000     0.467430000000    -0.101455   
C169     C      0.379880000000     0.830040000000     0.497200000000     0.0873389  
C170     C      0.329670000000     0.880080000000     0.510230000000     0.0849953  
C171     C      0.350210000000     0.799610000000     0.496980000000    -0.102875   
C172     C      0.251060000000     0.772030000000     0.536140000000    -0.0347786  
C173     C      0.221650000000     0.741180000000     0.535320000000    -0.0343819  
C174     C      0.277660000000     0.777500000000     0.503120000000    -0.00887701 
C175     C      0.299330000000     0.850190000000     0.511190000000    -0.100584   
C176     C      0.217710000000     0.716000000000     0.501060000000    -0.00883956 
C177     C      0.184370000000     0.653340000000     0.528800000000    -0.102477   
C178     C      0.244030000000     0.721780000000     0.467910000000    -0.0345039  
C179     C      0.155050000000     0.622640000000     0.525730000000     0.0943833  
C180     C      0.128380000000     0.652470000000     0.465560000000     0.102161   
C181     C      0.274010000000     0.751930000000     0.469120000000    -0.0346942  
C182     C      0.105610000000     0.648800000000     0.428200000000     0.0404361  
C183     C      0.309450000000     0.809510000000     0.504050000000     0.0550971  
C184     C      0.185900000000     0.684070000000     0.499470000000     0.0583393  
C185     C      0.800600000000     0.493220000000     0.347820000000    -0.102837   
C186     C      0.666180000000     0.501360000000     0.112920000000     0.0888413  
C187     C      0.616180000000     0.500590000000     0.164880000000     0.0871631  
C188     C      0.697220000000     0.501130000000     0.141830000000    -0.103488   
C189     C      0.754880000000     0.475080000000     0.209210000000    -0.0346851  
C190     C      0.785230000000     0.473800000000     0.238980000000    -0.0347568  
C191     C      0.720340000000     0.499830000000     0.214340000000    -0.00894344 
C192     C      0.646530000000     0.500470000000     0.194630000000    -0.101659   
C193     C      0.781650000000     0.497230000000     0.274490000000    -0.00892418 
C194     C      0.854230000000     0.493530000000     0.298400000000    -0.101945   
C195     C      0.747460000000     0.522530000000     0.279210000000    -0.0347113  
C196     C      0.882670000000     0.492290000000     0.329960000000     0.0866736  
C197     C      0.829520000000     0.492000000000     0.379000000000     0.0950275  
C198     C      0.717130000000     0.523750000000     0.249540000000    -0.0346195  
C199     C      0.813040000000     0.490650000000     0.419800000000     0.0477358  
C200     C      0.687630000000     0.500530000000     0.183230000000     0.0559318  
C201     C      0.812680000000     0.494590000000     0.307210000000     0.0566951  
C202     C      0.197030000000     0.507820000000     0.351380000000    -0.102091   
C203     C      0.329770000000     0.486930000000     0.114720000000     0.0894808  
C204     C      0.380630000000     0.492220000000     0.165560000000     0.0881885  
C205     C      0.299250000000     0.487820000000     0.144310000000    -0.10255    
C206     C      0.243270000000     0.468930000000     0.216070000000    -0.0347724  
C207     C      0.213380000000     0.471460000000     0.246250000000    -0.0348308  
C208     C      0.277590000000     0.494400000000     0.217220000000    -0.00864713 
C209     C      0.350880000000     0.493440000000     0.195870000000    -0.102066   
C210     C      0.217030000000     0.499670000000     0.278190000000    -0.00864634 
C211     C      0.144360000000     0.497870000000     0.301910000000    -0.10169    
C212     C      0.251180000000     0.525440000000     0.279000000000    -0.0345033  
C213     C      0.115510000000     0.499190000000     0.333030000000     0.0843855  
C214     C      0.167540000000     0.509320000000     0.382180000000     0.0924852  
C215     C      0.281130000000     0.522760000000     0.248960000000    -0.0346025  
C216     C      0.182580000000     0.518030000000     0.422660000000     0.0463659  
C217     C      0.309610000000     0.491620000000     0.185420000000     0.0558925  
C218     C      0.185710000000     0.501810000000     0.310860000000     0.0554461  
C219     C      0.145460000000     0.488400000000     0.698270000000    -0.102911   
C220     C      0.382160000000     0.498530000000     0.830950000000     0.0866938  
C221     C      0.330810000000     0.497140000000     0.881560000000     0.0854353  
C222     C      0.352760000000     0.497070000000     0.800360000000    -0.104563   
C223     C      0.283160000000     0.516240000000     0.742690000000    -0.0347592  
C224     C      0.253140000000     0.514220000000     0.712660000000    -0.0348278  
C225     C      0.279780000000     0.492960000000     0.778370000000    -0.00922304 
C226     C      0.300630000000     0.495650000000     0.851710000000    -0.102895   
C227     C      0.219060000000     0.488910000000     0.717670000000    -0.00924663 
C228     C      0.195480000000     0.487450000000     0.645180000000    -0.103634   
C229     C      0.215900000000     0.465290000000     0.753130000000    -0.0348898  
C230     C      0.164210000000     0.487730000000     0.616490000000     0.0875091  
C231     C      0.114480000000     0.488800000000     0.668990000000     0.0938655  
C232     C      0.245910000000     0.467290000000     0.783130000000    -0.0348852  
C233     C      0.073320000000     0.489370000000     0.684810000000     0.0449527  
C234     C      0.311430000000     0.495360000000     0.810530000000     0.0552608  
C235     C      0.186300000000     0.488020000000     0.686580000000     0.056641   
C236     C      0.800660000000     0.483880000000     0.648280000000    -0.101635   
C237     C      0.665490000000     0.497100000000     0.882230000000     0.0892978  
C238     C      0.615430000000     0.487820000000     0.831170000000     0.0897908  
C239     C      0.696160000000     0.497960000000     0.852950000000    -0.104335   
C240     C      0.757340000000     0.478050000000     0.787380000000    -0.034092   
C241     C      0.787610000000     0.479460000000     0.757590000000    -0.0352509  
C242     C      0.718700000000     0.495090000000     0.780110000000    -0.0096097  
C243     C      0.645440000000     0.488080000000     0.801110000000    -0.104434   
C244     C      0.779740000000     0.497480000000     0.719740000000    -0.00851866 
C245     C      0.851090000000     0.508160000000     0.695180000000    -0.102429   
C246     C      0.741330000000     0.514700000000     0.712440000000    -0.0352461  
C247     C      0.879880000000     0.507100000000     0.664000000000     0.0873241  
C248     C      0.830240000000     0.482230000000     0.617720000000     0.0984778  
C249     C      0.711220000000     0.513730000000     0.742360000000    -0.0338165  
C250     C      0.817960000000     0.462830000000     0.580270000000     0.0526098  
C251     C      0.686400000000     0.493580000000     0.811750000000     0.0567257  
C252     C      0.810910000000     0.496950000000     0.687280000000     0.0572295  
C253     C      0.797680000000     0.850460000000     0.996570000000    -0.106999   
C254     C      0.664260000000     0.614540000000     0.998830000000     0.0893973  
C255     C      0.613470000000     0.665650000000     0.000460000000     0.0981648  
C256     C      0.694820000000     0.643940000000     0.997700000000    -0.107041   
C257     C      0.753490000000     0.712070000000     0.017730000000    -0.0301372  
C258     C      0.783750000000     0.741880000000     0.016080000000    -0.0312393  
C259     C      0.716870000000     0.716870000000     0.996060000000    -0.015053   
C260     C      0.643330000000     0.695880000000     0.999460000000    -0.115468   
C261     C      0.778000000000     0.777250000000     0.992890000000    -0.0134765  
C262     C      0.850600000000     0.800810000000     0.989490000000    -0.104052   
C263     C      0.741580000000     0.781910000000     0.970950000000    -0.0348585  
C264     C      0.879370000000     0.832030000000     0.990110000000     0.0850635  
C265     C      0.827020000000     0.881320000000     0.997500000000     0.0910867  
C266     C      0.711400000000     0.752060000000     0.972470000000    -0.0334466  
C267     C      0.811440000000     0.921890000000     0.004190000000     0.0498025  
C268     C      0.684610000000     0.685210000000     0.997850000000     0.0611237  
C269     C      0.809230000000     0.809870000000     0.992660000000     0.0581561  
C270     C      0.802250000000     0.150090000000     0.995590000000    -0.106657   
C271     C      0.667460000000     0.383920000000     0.995180000000     0.0891321  
C272     C      0.618100000000     0.331580000000     0.990670000000     0.0898089  
C273     C      0.698710000000     0.355280000000     0.996820000000    -0.105516   
C274     C      0.759840000000     0.288550000000     0.978970000000    -0.0306346  
C275     C      0.790250000000     0.258940000000     0.981330000000    -0.0416189  
C276     C      0.722280000000     0.282840000000     0.998740000000    -0.0160117  
C277     C      0.648640000000     0.302120000000     0.992050000000    -0.105781   
C278     C      0.783600000000     0.222950000000     0.003260000000    -0.0032002  
C279     C      0.855530000000     0.198040000000     0.009160000000    -0.102939   
C280     C      0.746420000000     0.217600000000     0.023660000000    -0.0380586  
C281     C      0.883710000000     0.166290000000     0.008190000000     0.0890759  
C282     C      0.831010000000     0.118810000000     0.994140000000     0.0933899  
C283     C      0.716150000000     0.247240000000     0.021520000000    -0.026951   
C284     C      0.815270000000     0.079340000000     0.982770000000     0.0472852  
C285     C      0.689510000000     0.313790000000     0.995660000000     0.058482   
C286     C      0.814290000000     0.190000000000     0.003080000000     0.0601196  
C287     C      0.296430000000     0.642790000000     0.994370000000    -0.104212   
C288     C      0.164530000000     0.879730000000     0.009690000000     0.0901998  
C289     C      0.113370000000     0.829040000000     0.006610000000     0.088244   
C290     C      0.194880000000     0.850080000000     0.009120000000    -0.102735   
C291     C      0.250870000000     0.782640000000     0.980160000000    -0.0422602  
C292     C      0.280650000000     0.752430000000     0.977570000000    -0.0307437  
C293     C      0.216290000000     0.777130000000     0.004750000000    -0.00224057 
C294     C      0.142990000000     0.798590000000     0.006110000000    -0.102138   
C295     C      0.276530000000     0.716040000000     0.999530000000    -0.0160084  
C296     C      0.349260000000     0.693010000000     0.995910000000    -0.104341   
C297     C      0.242090000000     0.710700000000     0.024380000000    -0.0272857  
C298     C      0.378190000000     0.662020000000     0.994240000000     0.0858854  
C299     C      0.325940000000     0.612080000000     0.992800000000     0.0943465  
C300     C      0.212290000000     0.740860000000     0.026900000000    -0.0386408  
C301     C      0.310360000000     0.570940000000     0.991120000000     0.0459671  
C302     C      0.184330000000     0.808960000000     0.006900000000     0.0547212  
C303     C      0.307850000000     0.683590000000     0.996460000000     0.0581765  
C304     C      0.198330000000     0.143270000000     0.999500000000    -0.108169   
C305     C      0.331580000000     0.379630000000     0.002010000000     0.0862727  
C306     C      0.382560000000     0.328670000000     0.002340000000     0.0854275  
C307     C      0.301100000000     0.350110000000     0.001690000000    -0.102913   
C308     C      0.243510000000     0.281370000000     0.023370000000    -0.039043   
C309     C      0.213330000000     0.251450000000     0.022230000000    -0.0273209  
C310     C      0.279360000000     0.277090000000     0.000370000000    -0.00243087 
C311     C      0.352800000000     0.298340000000     0.002030000000    -0.10281    
C312     C      0.218360000000     0.216550000000     0.998150000000    -0.0168212  
C313     C      0.145560000000     0.193500000000     0.996440000000    -0.104151   
C314     C      0.254050000000     0.212420000000     0.974940000000    -0.0309178  
C315     C      0.116600000000     0.162470000000     0.996520000000     0.0837413  
C316     C      0.168810000000     0.112550000000     0.999700000000     0.0894597  
C317     C      0.284190000000     0.242330000000     0.976030000000    -0.0425775  
C318     C      0.184370000000     0.071430000000     0.002180000000     0.0487646  
C319     C      0.311480000000     0.308880000000     0.001500000000     0.0534058  
C320     C      0.186950000000     0.184080000000     0.997890000000     0.0585909  
C321     C      0.853840000000     0.000460000000     0.796550000000    -0.0959845  
C322     C      0.616830000000     0.997570000000     0.663740000000     0.0851538  
C323     C      0.667150000000     0.005240000000     0.612700000000     0.0903492  
C324     C      0.646650000000     0.997450000000     0.693910000000    -0.106497   
C325     C      0.714370000000     0.020760000000     0.752140000000    -0.038648   
C326     C      0.744410000000     0.019490000000     0.782190000000    -0.0243002  
C327     C      0.719820000000     0.000150000000     0.715090000000     0.000175024
C328     C      0.697800000000     0.005140000000     0.642140000000    -0.101688   
C329     C      0.780580000000     0.997590000000     0.775870000000    -0.0167068  
C330     C      0.803240000000     0.993060000000     0.848560000000    -0.0998804  
C331     C      0.785950000000     0.976850000000     0.738880000000    -0.0302083  
C332     C      0.834060000000     0.992940000000     0.877740000000     0.0843174  
C333     C      0.884360000000     0.000340000000     0.826310000000     0.0973515  
C334     C      0.755950000000     0.978150000000     0.708830000000    -0.0445089  
C335     C      0.925580000000     0.005150000000     0.811380000000     0.04675    
C336     C      0.687720000000     0.001120000000     0.683320000000     0.0602648  
C337     C      0.812920000000     0.996910000000     0.807440000000     0.0516903  
C338     C      0.301370000000     0.996500000000     0.650330000000    -0.103895   
C339     C      0.169440000000     0.004160000000     0.887130000000     0.0894207  
C340     C      0.119640000000     0.002780000000     0.834980000000     0.0892219  
C341     C      0.200590000000     0.003760000000     0.858210000000    -0.101152   
C342     C      0.258500000000     0.024460000000     0.788420000000    -0.0407357  
C343     C      0.288280000000     0.023200000000     0.758060000000    -0.0231378  
C344     C      0.223460000000     0.000120000000     0.785480000000     0.00177644 
C345     C      0.149970000000     0.002230000000     0.805350000000    -0.100965   
C346     C      0.283620000000     0.997530000000     0.724210000000    -0.0192066  
C347     C      0.355690000000     0.998670000000     0.698970000000    -0.102352   
C348     C      0.249000000000     0.972560000000     0.721820000000    -0.0284187  
C349     C      0.383640000000     0.998520000000     0.667030000000     0.0850609  
C350     C      0.329890000000     0.996390000000     0.618690000000     0.0936094  
C351     C      0.219270000000     0.973870000000     0.752060000000    -0.0460485  
C352     C      0.313010000000     0.995590000000     0.578000000000     0.044073   
C353     C      0.191010000000     0.002260000000     0.816780000000     0.0538032  
C354     C      0.314050000000     0.997480000000     0.690830000000     0.0585919  
C355     C      0.141490000000     0.994590000000     0.200360000000    -0.103867   
C356     C      0.378670000000     0.999070000000     0.332240000000     0.0883474  
C357     C      0.328350000000     0.004670000000     0.383560000000     0.0923757  
C358     C      0.348760000000     0.998550000000     0.302180000000    -0.113425   
C359     C      0.279880000000     0.020870000000     0.244890000000    -0.02457    
C360     C      0.249840000000     0.018860000000     0.214920000000    -0.0308603  
C361     C      0.275540000000     0.999140000000     0.281410000000    -0.0247372  
C362     C      0.297600000000     0.004050000000     0.354250000000    -0.10778    
C363     C      0.214840000000     0.994990000000     0.220790000000    -0.0134491  
C364     C      0.192280000000     0.991420000000     0.148080000000    -0.104008   
C365     C      0.210620000000     0.973130000000     0.257270000000    -0.0359785  
C366     C      0.161460000000     0.990910000000     0.118950000000     0.0844803  
C367     C      0.110960000000     0.993990000000     0.170650000000     0.091732   
C368     C      0.240600000000     0.975240000000     0.287280000000    -0.0300364  
C369     C      0.069580000000     0.995590000000     0.185820000000     0.0434062  
C370     C      0.307670000000     0.000840000000     0.313020000000     0.0732982  
C371     C      0.182500000000     0.993490000000     0.189300000000     0.0565789  
C372     C      0.644250000000     0.990360000000     0.298470000000    -0.10499    
C373     C      0.879110000000     0.009180000000     0.164100000000     0.090398   
C374     C      0.828190000000     0.005190000000     0.113200000000     0.087429   
C375     C      0.849540000000     0.009090000000     0.194520000000    -0.101559   
C376     C      0.778710000000     0.028920000000     0.250870000000    -0.0412862  
C377     C      0.749200000000     0.026060000000     0.281380000000    -0.022829   
C378     C      0.776780000000     0.003790000000     0.216360000000     0.00248258 
C379     C      0.797790000000     0.004710000000     0.142940000000    -0.0980473  
C380     C      0.717190000000     0.997880000000     0.278090000000    -0.0206553  
C381     C      0.694060000000     0.998900000000     0.351000000000    -0.109756   
C382     C      0.715620000000     0.972450000000     0.243750000000    -0.0275158  
C383     C      0.662960000000     0.997140000000     0.379940000000     0.078425   
C384     C      0.613580000000     0.988380000000     0.327950000000     0.0924215  
C385     C      0.744960000000     0.975470000000     0.213190000000    -0.0463416  
C386     C      0.573160000000     0.980440000000     0.312520000000     0.0472632  
C387     C      0.808360000000     0.006260000000     0.184180000000     0.0532628  
C388     C      0.684860000000     0.995700000000     0.309680000000     0.0601954  
C389     C      0.013030000000     0.196000000000     0.849710000000    -0.101211   
C390     C      0.009600000000     0.328260000000     0.612470000000     0.089161   
C391     C      0.007320000000     0.378310000000     0.664180000000     0.0876921  
C392     C      0.012300000000     0.297490000000     0.641610000000    -0.10086    
C393     C      0.992010000000     0.238780000000     0.710130000000    -0.0384753  
C394     C      0.992780000000     0.208970000000     0.740420000000    -0.0385993  
C395     C      0.014460000000     0.274900000000     0.714560000000    -0.00407007 
C396     C      0.010060000000     0.348300000000     0.694110000000    -0.100157   
C397     C      0.016020000000     0.214560000000     0.775880000000    -0.00411811 
C398     C      0.015570000000     0.142300000000     0.800560000000    -0.0997044  
C399     C      0.039050000000     0.250360000000     0.779960000000    -0.035173   
C400     C      0.013500000000     0.114030000000     0.832150000000     0.0862284  
C401     C      0.010870000000     0.167140000000     0.881010000000     0.0943865  
C402     C      0.038250000000     0.280170000000     0.749700000000    -0.0350415  
C403     C      0.007790000000     0.183490000000     0.921790000000     0.0467529  
C404     C      0.012440000000     0.307280000000     0.683040000000     0.0547758  
C405     C      0.015170000000     0.183840000000     0.809090000000     0.0552902  
C406     C      0.985090000000     0.693930000000     0.648960000000    -0.102389   
C407     C      0.997110000000     0.829590000000     0.883360000000     0.0874362  
C408     C      0.993880000000     0.879570000000     0.831580000000     0.0858549  
C409     C      0.996430000000     0.798640000000     0.854390000000    -0.104473   
C410     C      0.019360000000     0.742160000000     0.784380000000    -0.0309277  
C411     C      0.018460000000     0.711680000000     0.754740000000    -0.0304239  
C412     C      0.992810000000     0.775590000000     0.781970000000    -0.0130791  
C413     C      0.992690000000     0.849280000000     0.801790000000    -0.102497   
C414     C      0.990800000000     0.713830000000     0.722170000000    -0.0134803  
C415     C      0.996980000000     0.641400000000     0.697990000000    -0.105292   
C416     C      0.963690000000     0.746920000000     0.720380000000    -0.0339037  
C417     C      0.997250000000     0.612860000000     0.666490000000     0.0809281  
C418     C      0.984960000000     0.664820000000     0.617950000000     0.0940456  
C419     C      0.964850000000     0.777530000000     0.749770000000    -0.0343998  
C420     C      0.974800000000     0.679940000000     0.577950000000     0.0474426  
C421     C      0.994080000000     0.808260000000     0.813070000000     0.0561484  
C422     C      0.991000000000     0.682560000000     0.689420000000     0.0575706  
C423     C      0.996840000000     0.696370000000     0.349720000000    -0.10036    
C424     C      0.001220000000     0.829820000000     0.114340000000     0.0909799  
C425     C      0.000610000000     0.880090000000     0.165970000000     0.0911583  
C426     C      0.001050000000     0.799060000000     0.143480000000    -0.106228   
C427     C      0.023340000000     0.741710000000     0.212420000000    -0.0282703  
C428     C      0.022300000000     0.711470000000     0.242210000000    -0.0313047  
C429     C      0.998950000000     0.776620000000     0.216140000000    -0.0189423  
C430     C      0.000290000000     0.850040000000     0.195920000000    -0.105061   
C431     C      0.996820000000     0.715490000000     0.276290000000    -0.0117127  
C432     C      0.998630000000     0.643070000000     0.300070000000    -0.101024   
C433     C      0.971990000000     0.750120000000     0.279640000000    -0.0354404  
C434     C      0.999690000000     0.614600000000     0.331470000000     0.0859415  
C435     C      0.998060000000     0.667360000000     0.380790000000     0.095345   
C436     C      0.973090000000     0.780370000000     0.249940000000    -0.03186    
C437     C      0.000060000000     0.683560000000     0.421630000000     0.0569189  
C438     C      0.000260000000     0.808970000000     0.184810000000     0.0637653  
C439     C      0.997140000000     0.684470000000     0.309020000000     0.0578153  
C440     C      0.994570000000     0.350560000000     0.298780000000    -0.103467   
C441     C      0.990600000000     0.113120000000     0.166230000000     0.0854864  
C442     C      0.992620000000     0.164260000000     0.115580000000     0.0853176  
C443     C      0.990370000000     0.142590000000     0.196820000000    -0.102841   
C444     C      0.968120000000     0.212240000000     0.253780000000    -0.0341863  
C445     C      0.968710000000     0.242500000000     0.283680000000    -0.0342036  
C446     C      0.992420000000     0.215750000000     0.218740000000    -0.0128726  
C447     C      0.992490000000     0.194490000000     0.145390000000    -0.103805   
C448     C      0.993620000000     0.276960000000     0.279230000000    -0.0130199  
C449     C      0.992910000000     0.300710000000     0.351860000000    -0.102501   
C450     C      0.018240000000     0.280190000000     0.244400000000    -0.0307857  
C451     C      0.993510000000     0.331980000000     0.380560000000     0.0832828  
C452     C      0.995160000000     0.381530000000     0.328050000000     0.0909302  
C453     C      0.017630000000     0.250010000000     0.214540000000    -0.0307722  
C454     C      0.996350000000     0.422580000000     0.312190000000     0.041855   
C455     C      0.991610000000     0.183880000000     0.186630000000     0.0554286  
C456     C      0.993650000000     0.309760000000     0.310410000000     0.0557323  
Eu1      Eu     0.995390000000     0.996870000000     0.070550000000     3.4713     
Eu2      Eu     0.996980000000     0.925190000000     0.998690000000     3.00646    
Eu3      Eu     0.998480000000     0.069580000000     0.998360000000     3.4631     
Eu4      Eu     0.925460000000     0.998650000000     0.996820000000     3.0241     
Eu5      Eu     0.069980000000     0.995970000000     0.000250000000     3.53608    
Eu6      Eu     0.000170000000     0.997750000000     0.926290000000     3.05749    
Eu7      Eu     0.998070000000     0.498810000000     0.426420000000     3.47329    
Eu8      Eu     0.998030000000     0.569720000000     0.498790000000     3.01724    
Eu9      Eu     0.997570000000     0.425410000000     0.498040000000     3.47927    
Eu10     Eu     0.925400000000     0.496860000000     0.497770000000     3.09058    
Eu11     Eu     0.070150000000     0.497860000000     0.500120000000     3.50809    
Eu12     Eu     0.997160000000     0.496570000000     0.570890000000     3.03325    
Eu13     Eu     0.495900000000     0.996120000000     0.426270000000     3.48352    
Eu14     Eu     0.425190000000     0.997580000000     0.499120000000     3.02476    
Eu15     Eu     0.569680000000     0.995870000000     0.497530000000     3.46891    
Eu16     Eu     0.497300000000     0.924360000000     0.498330000000     3.06221    
Eu17     Eu     0.497940000000     0.069130000000     0.498440000000     3.50449    
Eu18     Eu     0.498750000000     0.997290000000     0.570510000000     3.03888    
Eu19     Eu     0.425820000000     0.496370000000     0.998830000000     3.48972    
Eu20     Eu     0.496470000000     0.569580000000     0.998280000000     3.0134     
Eu21     Eu     0.499350000000     0.424630000000     0.998700000000     3.44527    
Eu22     Eu     0.497760000000     0.496700000000     0.070570000000     3.08453    
Eu23     Eu     0.498360000000     0.497490000000     0.926330000000     3.52006    
Eu24     Eu     0.570000000000     0.497920000000     0.998070000000     3.06198    
H1       H      0.957880000000     0.960350000000     0.064900000000    -0.175931   
H2       H      0.056150000000     0.055640000000     0.059490000000     0.416768   
H3       H      0.962540000000     0.065310000000     0.960200000000    -0.17711    
H4       H      0.065730000000     0.959180000000     0.963000000000    -0.190555   
H5       H      0.960580000000     0.535210000000     0.431400000000    -0.177083   
H6       H      0.057800000000     0.439390000000     0.439270000000     0.413566   
H7       H      0.960050000000     0.429380000000     0.534880000000    -0.171694   
H8       H      0.064650000000     0.534650000000     0.537240000000    -0.182844   
H9       H      0.458820000000     0.959320000000     0.431790000000    -0.17877    
H10      H      0.556080000000     0.055280000000     0.437770000000     0.414768   
H11      H      0.565170000000     0.958950000000     0.534620000000    -0.179974   
H12      H      0.461420000000     0.064680000000     0.536020000000    -0.183692   
H13      H      0.430030000000     0.533370000000     0.035820000000    -0.179252   
H14      H      0.439660000000     0.437030000000     0.939190000000     0.411846   
H15      H      0.536210000000     0.430080000000     0.035800000000    -0.17091    
H16      H      0.534670000000     0.535310000000     0.930990000000    -0.181479   
H17      H      0.487310000000     0.319500000000     0.084730000000     0.019964   
H18      H      0.497050000000     0.172490000000     0.413560000000     0.0183397  
H19      H      0.439250000000     0.243920000000     0.192300000000     0.0378617  
H20      H      0.534210000000     0.255510000000     0.309060000000     0.0363847  
H21      H      0.494270000000     0.226300000000     0.364180000000     0.0531626  
H22      H      0.534570000000     0.307690000000     0.256350000000     0.0375981  
H23      H      0.481030000000     0.138390000000     0.268630000000     0.0584878  
H24      H      0.484910000000     0.268150000000     0.137530000000     0.0548509  
H25      H      0.491310000000     0.362290000000     0.228450000000     0.0554591  
H26      H      0.438440000000     0.192060000000     0.245170000000     0.0383349  
H27      H      0.494010000000     0.412840000000     0.175300000000     0.0240066  
H28      H      0.509230000000     0.820000000000     0.412350000000     0.0198292  
H29      H      0.498470000000     0.672800000000     0.083820000000     0.0214633  
H30      H      0.551830000000     0.742810000000     0.305120000000     0.0373839  
H31      H      0.456250000000     0.754010000000     0.188830000000     0.037955   
H32      H      0.500690000000     0.726100000000     0.133830000000     0.0547532  
H33      H      0.455610000000     0.806020000000     0.241610000000     0.037826   
H34      H      0.505090000000     0.637150000000     0.229190000000     0.0576245  
H35      H      0.510130000000     0.768030000000     0.360220000000     0.0540915  
H36      H      0.495370000000     0.860780000000     0.268700000000     0.0575689  
H37      H      0.552030000000     0.690580000000     0.252530000000     0.0380062  
H38      H      0.492400000000     0.911510000000     0.321470000000     0.030709   
H39      H      0.486490000000     0.673600000000     0.911390000000     0.0190726  
H40      H      0.495620000000     0.820960000000     0.583060000000     0.021237   
H41      H      0.439040000000     0.751370000000     0.804970000000     0.037154   
H42      H      0.531320000000     0.735970000000     0.686520000000     0.0372586  
H43      H      0.491510000000     0.767190000000     0.632330000000     0.0539585  
H44      H      0.530140000000     0.683560000000     0.738950000000     0.0371402  
H45      H      0.485000000000     0.855250000000     0.728440000000     0.0578899  
H46      H      0.484400000000     0.725030000000     0.858720000000     0.054054   
H47      H      0.485320000000     0.630830000000     0.767640000000     0.0542719  
H48      H      0.439830000000     0.803550000000     0.752400000000     0.0379192  
H49      H      0.487780000000     0.580160000000     0.820710000000     0.0197848  
H50      H      0.506390000000     0.320470000000     0.911640000000     0.0174172  
H51      H      0.504110000000     0.174070000000     0.581930000000     0.0201912  
H52      H      0.464780000000     0.240140000000     0.807350000000     0.0362074  
H53      H      0.548110000000     0.261230000000     0.683300000000     0.037625   
H54      H      0.503920000000     0.227860000000     0.631630000000     0.0541007  
H55      H      0.547830000000     0.313160000000     0.736360000000     0.0372435  
H56      H      0.514510000000     0.139900000000     0.727380000000     0.058801   
H57      H      0.508390000000     0.269180000000     0.858930000000     0.0536718  
H58      H      0.504590000000     0.363520000000     0.767990000000     0.0534836  
H59      H      0.465310000000     0.188320000000     0.754550000000     0.038325   
H60      H      0.503500000000     0.414040000000     0.821160000000     0.0184385  
H61      H      0.913500000000     0.319260000000     0.493900000000     0.0225983  
H62      H      0.584150000000     0.172000000000     0.496830000000     0.0186667  
H63      H      0.808260000000     0.242730000000     0.535720000000     0.038112   
H64      H      0.687480000000     0.251570000000     0.445630000000     0.0366833  
H65      H      0.634490000000     0.225100000000     0.494160000000     0.0537167  
H66      H      0.740430000000     0.303420000000     0.440890000000     0.0378467  
H67      H      0.729710000000     0.135800000000     0.495870000000     0.0574152  
H68      H      0.861680000000     0.267110000000     0.492980000000     0.0548688  
H69      H      0.769970000000     0.359440000000     0.476000000000     0.0588657  
H70      H      0.755750000000     0.190700000000     0.539790000000     0.0386309  
H71      H      0.822830000000     0.410520000000     0.474660000000     0.0366234  
H72      H      0.584130000000     0.819680000000     0.495580000000     0.0191778  
H73      H      0.912380000000     0.671010000000     0.480820000000     0.0342998  
H74      H      0.684820000000     0.734560000000     0.451590000000     0.0369434  
H75      H      0.815140000000     0.763720000000     0.522080000000     0.039307   
H76      H      0.862570000000     0.724560000000     0.475930000000     0.0579924  
H77      H      0.762290000000     0.815690000000     0.520150000000     0.0373473  
H78      H      0.768430000000     0.640720000000     0.509940000000     0.0592483  
H79      H      0.636650000000     0.768200000000     0.494140000000     0.0540017  
H80      H      0.727040000000     0.861780000000     0.476940000000     0.0551915  
H81      H      0.737430000000     0.682380000000     0.454440000000     0.0389779  
H82      H      0.674150000000     0.912530000000     0.479800000000     0.0236471  
H83      H      0.321350000000     0.084470000000     0.494390000000     0.026926   
H84      H      0.174050000000     0.412950000000     0.503520000000     0.0230762  
H85      H      0.243620000000     0.188080000000     0.541260000000     0.0388554  
H86      H      0.257950000000     0.312010000000     0.456600000000     0.0372478  
H87      H      0.227780000000     0.363240000000     0.503350000000     0.0549035  
H88      H      0.310240000000     0.259400000000     0.453290000000     0.0372909  
H89      H      0.139220000000     0.267400000000     0.498870000000     0.0580248  
H90      H      0.269740000000     0.136860000000     0.495350000000     0.0568389  
H91      H      0.363870000000     0.228210000000     0.492950000000     0.054245   
H92      H      0.191350000000     0.240480000000     0.544310000000     0.0388515  
H93      H      0.414770000000     0.175260000000     0.491100000000     0.0195027  
H94      H      0.320430000000     0.911240000000     0.515510000000     0.0281196  
H95      H      0.154480000000     0.599330000000     0.549070000000     0.017121   
H96      H      0.294070000000     0.755640000000     0.443230000000     0.0388402  
H97      H      0.201570000000     0.737370000000     0.561170000000     0.0397447  
H98      H      0.206050000000     0.652730000000     0.553600000000     0.0569333  
H99      H      0.253430000000     0.791250000000     0.562770000000     0.0389061  
H100     H      0.159700000000     0.705830000000     0.443530000000     0.0612349  
H101     H      0.268020000000     0.858970000000     0.516670000000     0.0567743  
H102     H      0.359190000000     0.768410000000     0.491540000000     0.0550762  
H103     H      0.241650000000     0.702650000000     0.441210000000     0.0400223  
H104     H      0.411040000000     0.820780000000     0.491530000000     0.0204988  
H105     H      0.584830000000     0.500180000000     0.175120000000     0.0275753  
H106     H      0.914450000000     0.492110000000     0.321150000000     0.0281072  
H107     H      0.691290000000     0.543700000000     0.254020000000     0.0379792  
H108     H      0.810970000000     0.453700000000     0.234650000000     0.0379826  
H109     H      0.864900000000     0.494550000000     0.267260000000     0.055872   
H110     H      0.758020000000     0.455960000000     0.182590000000     0.0375881  
H111     H      0.768410000000     0.492840000000     0.355310000000     0.0585237  
H112     H      0.637780000000     0.499620000000     0.226360000000     0.055938   
H113     H      0.728600000000     0.501800000000     0.131710000000     0.0545151  
H114     H      0.744180000000     0.541560000000     0.305880000000     0.0385705  
H115     H      0.675250000000     0.501840000000     0.081240000000     0.0214101  
H116     H      0.412130000000     0.494020000000     0.175200000000     0.0261524  
H117     H      0.084010000000     0.495370000000     0.324010000000     0.0259061  
H118     H      0.306840000000     0.543320000000     0.250300000000     0.038612   
H119     H      0.187790000000     0.450760000000     0.244970000000     0.0370906  
H120     H      0.134100000000     0.493940000000     0.270860000000     0.0558647  
H121     H      0.239880000000     0.446480000000     0.192230000000     0.037488   
H122     H      0.228960000000     0.510990000000     0.359200000000     0.057253   
H123     H      0.360250000000     0.495720000000     0.227360000000     0.0560226  
H124     H      0.267680000000     0.486530000000     0.134890000000     0.0559847  
H125     H      0.254620000000     0.548070000000     0.302650000000     0.0386803  
H126     H      0.320210000000     0.484540000000     0.083270000000     0.0257367  
H127     H      0.320950000000     0.497090000000     0.912990000000     0.0262231  
H128     H      0.173440000000     0.487380000000     0.584850000000     0.0242957  
H129     H      0.242780000000     0.448370000000     0.809890000000     0.03669    
H130     H      0.256160000000     0.533200000000     0.685930000000     0.0374235  
H131     H      0.226780000000     0.486590000000     0.634850000000     0.0552318  
H132     H      0.308620000000     0.536690000000     0.738310000000     0.0372612  
H133     H      0.137640000000     0.489240000000     0.730320000000     0.0576107  
H134     H      0.268990000000     0.495020000000     0.860940000000     0.0556644  
H135     H      0.362510000000     0.496520000000     0.768900000000     0.0535336  
H136     H      0.190320000000     0.445010000000     0.757590000000     0.0376968  
H137     H      0.413750000000     0.499500000000     0.821500000000     0.0185294  
H138     H      0.584180000000     0.483600000000     0.821460000000     0.0197898  
H139     H      0.910370000000     0.517240000000     0.671520000000     0.0239368  
H140     H      0.682190000000     0.527930000000     0.735960000000     0.0370093  
H141     H      0.816830000000     0.465490000000     0.763750000000     0.0379892  
H142     H      0.860130000000     0.518380000000     0.725160000000     0.0555666  
H143     H      0.764030000000     0.462890000000     0.815820000000     0.036564   
H144     H      0.769910000000     0.473490000000     0.642090000000     0.0606439  
H145     H      0.636480000000     0.483700000000     0.769740000000     0.0542146  
H146     H      0.727270000000     0.502860000000     0.862660000000     0.0539463  
H147     H      0.734670000000     0.529140000000     0.683600000000     0.0401573  
H148     H      0.674650000000     0.501010000000     0.913650000000     0.019939   
H149     H      0.581970000000     0.675380000000     0.001640000000     0.0184854  
H150     H      0.910960000000     0.823010000000     0.987070000000     0.0205912  
H151     H      0.683930000000     0.756390000000     0.954780000000     0.0365509  
H152     H      0.811240000000     0.737690000000     0.033770000000     0.0375236  
H153     H      0.860800000000     0.769700000000     0.986110000000     0.0534297  
H154     H      0.758500000000     0.685600000000     0.036640000000     0.0369819  
H155     H      0.765710000000     0.858070000000     0.000050000000     0.0619983  
H156     H      0.634040000000     0.727440000000     0.000300000000     0.060233   
H157     H      0.726280000000     0.634230000000     0.995970000000     0.0539231  
H158     H      0.736500000000     0.808590000000     0.952350000000     0.0377406  
H159     H      0.673840000000     0.583020000000     0.998350000000     0.0195828  
H160     H      0.586920000000     0.321080000000     0.988170000000     0.0187568  
H161     H      0.915230000000     0.174310000000     0.013760000000     0.0262764  
H162     H      0.687970000000     0.242280000000     0.037880000000     0.0370186  
H163     H      0.818460000000     0.263610000000     0.964920000000     0.038826   
H164     H      0.865990000000     0.228670000000     0.015140000000     0.0567037  
H165     H      0.765410000000     0.315430000000     0.960830000000     0.0357125  
H166     H      0.770420000000     0.143480000000     0.989600000000     0.0591608  
H167     H      0.640180000000     0.270380000000     0.990170000000     0.0543358  
H168     H      0.729820000000     0.365710000000     0.999940000000     0.0538063  
H169     H      0.740710000000     0.190360000000     0.041260000000     0.0406682  
H170     H      0.676160000000     0.415650000000     0.996730000000     0.0197309  
H171     H      0.081790000000     0.819550000000     0.005380000000     0.0211442  
H172     H      0.409810000000     0.671440000000     0.994320000000     0.0200113  
H173     H      0.186320000000     0.735970000000     0.046590000000     0.0388403  
H174     H      0.306530000000     0.757270000000     0.957750000000     0.0355749  
H175     H      0.359500000000     0.724250000000     0.997640000000     0.0535628  
H176     H      0.254560000000     0.810010000000     0.962250000000     0.0380482  
H177     H      0.264380000000     0.634790000000     0.993790000000     0.0571439  
H178     H      0.133480000000     0.767140000000     0.004140000000     0.0548499  
H179     H      0.226480000000     0.859410000000     0.010510000000     0.0557108  
H180     H      0.238350000000     0.683340000000     0.042290000000     0.037421   
H181     H      0.174310000000     0.911150000000     0.011170000000     0.0232663  
H182     H      0.414110000000     0.319030000000     0.002700000000     0.018492   
H183     H      0.085010000000     0.171860000000     0.995150000000     0.0268488  
H184     H      0.311070000000     0.238440000000     0.957360000000     0.0370255  
H185     H      0.186430000000     0.255260000000     0.040890000000     0.0361012  
H186     H      0.135450000000     0.224780000000     0.994780000000     0.0552551  
H187     H      0.239060000000     0.307520000000     0.042850000000     0.0385118  
H188     H      0.230340000000     0.135290000000     0.001360000000     0.0612282  
H189     H      0.362210000000     0.266810000000     0.002540000000     0.0541736  
H190     H      0.269570000000     0.359670000000     0.000830000000     0.0549172  
H191     H      0.258550000000     0.186180000000     0.955580000000     0.0360957  
H192     H      0.321910000000     0.411120000000     0.001830000000     0.0228169  
H193     H      0.676380000000     0.008510000000     0.581250000000     0.0289531  
H194     H      0.824520000000     0.989270000000     0.909050000000     0.0327754  
H195     H      0.760770000000     0.961380000000     0.680920000000     0.0386892  
H196     H      0.739600000000     0.036290000000     0.810090000000     0.0386565  
H197     H      0.771930000000     0.989600000000     0.858290000000     0.056258   
H198     H      0.687090000000     0.038400000000     0.757690000000     0.041533   
H199     H      0.862040000000     0.004150000000     0.764800000000     0.0580508  
H200     H      0.729190000000     0.008550000000     0.632660000000     0.0576268  
H201     H      0.637530000000     0.993580000000     0.725320000000     0.0574938  
H202     H      0.813190000000     0.959160000000     0.733310000000     0.0356148  
H203     H      0.585600000000     0.993620000000     0.673450000000     0.0327118  
H204     H      0.088330000000     0.002490000000     0.824540000000     0.024803   
H205     H      0.415480000000     0.999660000000     0.675430000000     0.0326702  
H206     H      0.193030000000     0.954110000000     0.749360000000     0.0394705  
H207     H      0.314420000000     0.043100000000     0.760560000000     0.0369031  
H208     H      0.366820000000     0.999250000000     0.729970000000     0.0563223  
H209     H      0.262420000000     0.045230000000     0.813660000000     0.0397463  
H210     H      0.269090000000     0.996410000000     0.643280000000     0.0574812  
H211     H      0.141230000000     0.001890000000     0.773590000000     0.0571447  
H212     H      0.231960000000     0.003650000000     0.868340000000     0.0561202  
H213     H      0.244910000000     0.951840000000     0.696560000000     0.0362794  
H214     H      0.178300000000     0.004750000000     0.918850000000     0.0274561  
H215     H      0.319150000000     0.007290000000     0.415100000000     0.0242574  
H216     H      0.171160000000     0.989260000000     0.087500000000     0.0255377  
H217     H      0.236730000000     0.957620000000     0.314820000000     0.0359968  
H218     H      0.253700000000     0.036560000000     0.187440000000     0.0386744  
H219     H      0.223700000000     0.989900000000     0.138210000000     0.054903   
H220     H      0.306260000000     0.039920000000     0.239710000000     0.0373732  
H221     H      0.133190000000     0.996730000000     0.232230000000     0.0572131  
H222     H      0.266150000000     0.006370000000     0.363860000000     0.0594779  
H223     H      0.357840000000     0.995360000000     0.270680000000     0.0586918  
H224     H      0.184330000000     0.953960000000     0.262470000000     0.0387262  
H225     H      0.409920000000     0.995970000000     0.322400000000     0.0294996  
H226     H      0.818630000000     0.003750000000     0.081710000000     0.0336027  
H227     H      0.672120000000     0.000220000000     0.411440000000     0.0307064  
H228     H      0.743110000000     0.955130000000     0.187370000000     0.0405862  
H229     H      0.751010000000     0.046470000000     0.307140000000     0.0354204  
H230     H      0.725230000000     0.002500000000     0.361120000000     0.0610147  
H231     H      0.802710000000     0.051270000000     0.254000000000     0.0397205  
H232     H      0.636270000000     0.988000000000     0.266540000000     0.058436   
H233     H      0.766190000000     0.003140000000     0.133650000000     0.0588858  
H234     H      0.859050000000     0.010110000000     0.226030000000     0.0558744  
H235     H      0.691870000000     0.949850000000     0.240590000000     0.0366384  
H236     H      0.910610000000     0.010830000000     0.173780000000     0.0250784  
H237     H      0.005230000000     0.409560000000     0.674320000000     0.0290408  
H238     H      0.014100000000     0.082290000000     0.823390000000     0.0299093  
H239     H      0.056470000000     0.307290000000     0.753740000000     0.0382332  
H240     H      0.974260000000     0.182030000000     0.736540000000     0.0386702  
H241     H      0.017750000000     0.131500000000     0.769530000000     0.0574897  
H242     H      0.972950000000     0.233960000000     0.683700000000     0.0379066  
H243     H      0.012030000000     0.228120000000     0.857090000000     0.0577028  
H244     H      0.009560000000     0.357270000000     0.725780000000     0.0564399  
H245     H      0.014620000000     0.266220000000     0.631640000000     0.0570409  
H246     H      0.057840000000     0.255330000000     0.806550000000     0.0382508  
H247     H      0.009620000000     0.319090000000     0.580830000000     0.0287959  
H248     H      0.992820000000     0.910890000000     0.821450000000     0.0240771  
H249     H      0.002520000000     0.581500000000     0.675080000000     0.0308385  
H250     H      0.943510000000     0.802520000000     0.747540000000     0.0378747  
H251     H      0.040100000000     0.686960000000     0.756840000000     0.0376149  
H252     H      0.001150000000     0.631070000000     0.728970000000     0.0590801  
H253     H      0.041450000000     0.740020000000     0.808720000000     0.0377163  
H254     H      0.980560000000     0.725690000000     0.641350000000     0.0584331  
H255     H      0.991170000000     0.857990000000     0.770060000000     0.0550253  
H256     H      0.997130000000     0.767290000000     0.864400000000     0.0533062  
H257     H      0.941330000000     0.749170000000     0.696290000000     0.0379166  
H258     H      0.998770000000     0.820470000000     0.914980000000     0.0191076  
H259     H      0.000480000000     0.911450000000     0.176010000000     0.0276742  
H260     H      0.000670000000     0.582950000000     0.322450000000     0.0289227  
H261     H      0.953380000000     0.806540000000     0.253250000000     0.0363639  
H262     H      0.042200000000     0.685420000000     0.239040000000     0.0395103  
H263     H      0.998590000000     0.632560000000     0.268860000000     0.0542652  
H264     H      0.043870000000     0.738170000000     0.186910000000     0.0366833  
H265     H      0.996770000000     0.728450000000     0.357360000000     0.0582347  
H266     H      0.000310000000     0.858990000000     0.227610000000     0.0584149  
H267     H      0.000710000000     0.767670000000     0.133580000000     0.0563207  
H268     H      0.951520000000     0.753790000000     0.305190000000     0.0382447  
H269     H      0.001470000000     0.820570000000     0.082720000000     0.0217681  
H270     H      0.993390000000     0.174070000000     0.084130000000     0.0211918  
H271     H      0.993090000000     0.322800000000     0.412210000000     0.0261524  
H272     H      0.037330000000     0.253300000000     0.188350000000     0.0371853  
H273     H      0.949020000000     0.239280000000     0.309880000000     0.0377578  
H274     H      0.992530000000     0.269490000000     0.362280000000     0.055268   
H275     H      0.948010000000     0.186470000000     0.257760000000     0.0375282  
H276     H      0.994420000000     0.358390000000     0.266730000000     0.0562197  
H277     H      0.992770000000     0.226050000000     0.136070000000     0.0539442  
H278     H      0.990030000000     0.132960000000     0.228300000000     0.0555082  
H279     H      0.038380000000     0.305940000000     0.240350000000     0.0372862  
H280     H      0.989970000000     0.081580000000     0.175710000000     0.0259631  
N1       N      0.490250000000     0.123470000000     0.370590000000    -0.216712   
N2       N      0.491080000000     0.370080000000     0.125870000000    -0.217127   
N3       N      0.474140000000     0.036960000000     0.297070000000    -0.0994616  
N4       N      0.500660000000     0.623290000000     0.126700000000    -0.21259    
N5       N      0.501410000000     0.869830000000     0.370860000000    -0.217374   
N6       N      0.503740000000     0.534640000000     0.199030000000    -0.108418   
N7       N      0.492210000000     0.870100000000     0.626300000000    -0.211721   
N8       N      0.487680000000     0.622950000000     0.870170000000    -0.217849   
N9       N      0.483460000000     0.957270000000     0.700110000000    -0.101315   
N10      N      0.508340000000     0.125010000000     0.625160000000    -0.213772   
N11      N      0.504560000000     0.371190000000     0.870560000000    -0.220555   
N12      N      0.521890000000     0.038320000000     0.698850000000    -0.0976415  
N13      N      0.626910000000     0.122310000000     0.497930000000    -0.217124   
N14      N      0.871950000000     0.369080000000     0.485910000000    -0.215648   
N15      N      0.699070000000     0.033440000000     0.499180000000    -0.109062   
N16      N      0.870070000000     0.624330000000     0.498720000000    -0.210903   
N17      N      0.625090000000     0.870060000000     0.488320000000    -0.217579   
N18      N      0.799430000000     0.542830000000     0.536910000000    -0.0936308  
N19      N      0.124710000000     0.369780000000     0.501450000000    -0.217303   
N20      N      0.372030000000     0.125780000000     0.493070000000    -0.217036   
N21      N      0.036390000000     0.296980000000     0.497050000000    -0.10902    
N22      N      0.126590000000     0.623040000000     0.495240000000    -0.215723   
N23      N      0.369720000000     0.870110000000     0.503280000000    -0.213139   
N24      N      0.087570000000     0.644740000000     0.391400000000    -0.0974453  
N25      N      0.870920000000     0.492190000000     0.370190000000    -0.213932   
N26      N      0.625890000000     0.500830000000     0.124270000000    -0.215053   
N27      N      0.796770000000     0.489660000000     0.457670000000    -0.0961381  
N28      N      0.126560000000     0.504100000000     0.373150000000    -0.216925   
N29      N      0.370200000000     0.489610000000     0.125180000000    -0.216352   
N30      N      0.196960000000     0.526310000000     0.460420000000    -0.103884   
N31      N      0.123810000000     0.488910000000     0.627760000000    -0.214552   
N32      N      0.371340000000     0.498250000000     0.871320000000    -0.22059    
N33      N      0.034910000000     0.490110000000     0.699950000000    -0.107483   
N34      N      0.869720000000     0.494960000000     0.625240000000    -0.21277    
N35      N      0.625330000000     0.492550000000     0.871450000000    -0.218639   
N36      N      0.804950000000     0.444400000000     0.545830000000    -0.0961896  
N37      N      0.868190000000     0.872210000000     0.994060000000    -0.211778   
N38      N      0.623810000000     0.625210000000     0.999910000000    -0.21878    
N39      N      0.796020000000     0.959510000000     0.010810000000    -0.101636   
N40      N      0.871990000000     0.126730000000     0.000960000000    -0.212975   
N41      N      0.627360000000     0.372200000000     0.992760000000    -0.218557   
N42      N      0.799740000000     0.042860000000     0.971600000000    -0.0987661  
N43      N      0.367170000000     0.621630000000     0.993320000000    -0.214663   
N44      N      0.124030000000     0.869380000000     0.007830000000    -0.217279   
N45      N      0.295400000000     0.532540000000     0.989860000000    -0.110582   
N46      N      0.127590000000     0.122090000000     0.998170000000    -0.217032   
N47      N      0.372080000000     0.369080000000     0.002050000000    -0.220164   
N48      N      0.199220000000     0.033040000000     0.004630000000    -0.108706   
N49      N      0.874490000000     0.996750000000     0.867260000000    -0.213864   
N50      N      0.626900000000     0.001400000000     0.623380000000    -0.213888   
N51      N      0.964070000000     0.009570000000     0.797100000000    -0.107884   
N52      N      0.371390000000     0.997220000000     0.626980000000    -0.211695   
N53      N      0.129220000000     0.003150000000     0.875630000000    -0.217029   
N54      N      0.296890000000     0.995040000000     0.540030000000    -0.109079   
N55      N      0.120910000000     0.992500000000     0.129590000000    -0.218062   
N56      N      0.368640000000     0.002030000000     0.372670000000    -0.214882   
N57      N      0.030930000000     0.997160000000     0.200300000000    -0.10995    
N58      N      0.622720000000     0.992490000000     0.368970000000    -0.216142   
N59      N      0.868630000000     0.006620000000     0.123700000000    -0.215339   
N60      N      0.536070000000     0.972740000000     0.296280000000    -0.102264   
N61      N      0.010810000000     0.125810000000     0.872270000000    -0.212936   
N62      N      0.006930000000     0.368430000000     0.623600000000    -0.215369   
N63      N      0.004750000000     0.199080000000     0.959850000000    -0.110007   
N64      N      0.991860000000     0.624090000000     0.626490000000    -0.210752   
N65      N      0.995960000000     0.869830000000     0.872140000000    -0.214722   
N66      N      0.964690000000     0.695420000000     0.541160000000    -0.0983641  
N67      N      0.999490000000     0.626120000000     0.371760000000    -0.213147   
N68      N      0.000660000000     0.870090000000     0.125430000000    -0.215608   
N69      N      0.002900000000     0.699550000000     0.459490000000    -0.0957126  
N70      N      0.994780000000     0.372310000000     0.369300000000    -0.216535   
N71      N      0.992020000000     0.123800000000     0.125850000000    -0.218892   
N72      N      0.997580000000     0.460890000000     0.297040000000    -0.111874   
O1       O      0.995180000000     0.106510000000     0.056980000000    -0.621594   
O2       O      0.998370000000     0.888160000000     0.056990000000    -0.571693   
O3       O      0.937430000000     0.003660000000     0.107050000000    -0.610775   
O4       O      0.052510000000     0.994200000000     0.109180000000    -0.625096   
O5       O      0.105260000000     0.993450000000     0.060000000000    -0.626805   
O6       O      0.887110000000     0.002430000000     0.054980000000    -0.551154   
O7       O      0.999240000000     0.939050000000     0.108390000000    -0.604269   
O8       O      0.993110000000     0.055130000000     0.107930000000    -0.617011   
O9       O      0.036460000000     0.957180000000     0.039850000000    -1.4655     
O10      O      0.957630000000     0.038160000000     0.037700000000    -1.45829    
O11      O      0.949870000000     0.951950000000     0.038950000000    -1.0542     
O12      O      0.039030000000     0.038520000000     0.041590000000    -1.6346     
O13      O      0.996530000000     0.888040000000     0.940570000000    -0.568836   
O14      O      0.006380000000     0.107310000000     0.941160000000    -0.603864   
O15      O      0.887490000000     0.940940000000     0.994730000000    -0.560711   
O16      O      0.107050000000     0.938170000000     0.006540000000    -0.616457   
O17      O      0.107880000000     0.053580000000     0.999310000000    -0.631299   
O18      O      0.889540000000     0.057690000000     0.998390000000    -0.56733    
O19      O      0.942950000000     0.997290000000     0.887660000000    -0.569365   
O20      O      0.060000000000     0.000030000000     0.891280000000    -0.570702   
O21      O      0.890140000000     0.997390000000     0.936930000000    -0.553762   
O22      O      0.109740000000     0.001290000000     0.943910000000    -0.609759   
O23      O      0.937620000000     0.889020000000     0.995940000000    -0.557774   
O24      O      0.940970000000     0.108200000000     0.001880000000    -0.601785   
O25      O      0.057990000000     0.105650000000     0.998010000000    -0.616859   
O26      O      0.055360000000     0.887580000000     0.003050000000    -0.559617   
O27      O      0.998280000000     0.938960000000     0.889100000000    -0.560177   
O28      O      0.005280000000     0.056800000000     0.889760000000    -0.559551   
O29      O      0.039770000000     0.037090000000     0.960270000000    -1.46998    
O30      O      0.958770000000     0.958550000000     0.957780000000    -1.36463    
O31      O      0.953690000000     0.039820000000     0.951340000000    -1.05276    
O32      O      0.040220000000     0.950840000000     0.953600000000    -1.0541     
O33      O      0.996040000000     0.389200000000     0.438690000000    -0.616775   
O34      O      0.998830000000     0.607180000000     0.440630000000    -0.565874   
O35      O      0.940210000000     0.493270000000     0.388200000000    -0.59738    
O36      O      0.057250000000     0.501900000000     0.390160000000    -0.619169   
O37      O      0.107610000000     0.501480000000     0.441960000000    -0.625519   
O38      O      0.889100000000     0.495020000000     0.439080000000    -0.570795   
O39      O      0.001690000000     0.556980000000     0.389050000000    -0.606233   
O40      O      0.996590000000     0.441030000000     0.388610000000    -0.624737   
O41      O      0.038800000000     0.537410000000     0.459150000000    -1.45941    
O42      O      0.958720000000     0.457690000000     0.457490000000    -1.47371    
O43      O      0.951920000000     0.543640000000     0.457090000000    -1.06237    
O44      O      0.040210000000     0.456440000000     0.456770000000    -1.63227    
O45      O      0.995790000000     0.606340000000     0.557450000000    -0.559263   
O46      O      0.003410000000     0.386870000000     0.555110000000    -0.6025     
O47      O      0.888110000000     0.555300000000     0.499530000000    -0.55806    
O48      O      0.108940000000     0.554970000000     0.499220000000    -0.608862   
O49      O      0.107220000000     0.439020000000     0.501370000000    -0.623336   
O50      O      0.888990000000     0.437880000000     0.491350000000    -0.560442   
O51      O      0.938560000000     0.496920000000     0.607720000000    -0.567159   
O52      O      0.055160000000     0.493590000000     0.608440000000    -0.568025   
O53      O      0.887770000000     0.495580000000     0.556180000000    -0.558046   
O54      O      0.107010000000     0.490890000000     0.558410000000    -0.606975   
O55      O      0.939140000000     0.606580000000     0.499330000000    -0.548567   
O56      O      0.940510000000     0.387010000000     0.491290000000    -0.611411   
O57      O      0.055820000000     0.388480000000     0.499880000000    -0.625654   
O58      O      0.057720000000     0.606150000000     0.493300000000    -0.545511   
O59      O      0.994620000000     0.555120000000     0.608360000000    -0.555722   
O60      O      0.000970000000     0.437280000000     0.606980000000    -0.558276   
O61      O      0.037630000000     0.456900000000     0.538270000000    -1.46765    
O62      O      0.957660000000     0.536590000000     0.538050000000    -1.3684     
O63      O      0.951340000000     0.454950000000     0.543730000000    -1.06942    
O64      O      0.038870000000     0.543250000000     0.545590000000    -1.05162    
O65      O      0.605860000000     0.993680000000     0.438260000000    -0.617582   
O66      O      0.387170000000     0.000210000000     0.441180000000    -0.566528   
O67      O      0.499880000000     0.938470000000     0.388530000000    -0.606567   
O68      O      0.492950000000     0.054450000000     0.389020000000    -0.616182   
O69      O      0.494570000000     0.105860000000     0.439590000000    -0.625694   
O70      O      0.499610000000     0.887280000000     0.439690000000    -0.572437   
O71      O      0.437690000000     0.000970000000     0.389310000000    -0.602866   
O72      O      0.553810000000     0.993710000000     0.388220000000    -0.62039    
O73      O      0.457700000000     0.037320000000     0.458650000000    -1.46455    
O74      O      0.536850000000     0.956740000000     0.457590000000    -1.46849    
O75      O      0.450440000000     0.950870000000     0.457570000000    -1.06102    
O76      O      0.538980000000     0.038110000000     0.455650000000    -1.63574    
O77      O      0.388970000000     0.997210000000     0.557830000000    -0.564126   
O78      O      0.608490000000     0.000970000000     0.554710000000    -0.600614   
O79      O      0.438540000000     0.887620000000     0.499990000000    -0.566456   
O80      O      0.440660000000     0.107460000000     0.493860000000    -0.615478   
O81      O      0.557330000000     0.105540000000     0.498710000000    -0.626117   
O82      O      0.556230000000     0.887360000000     0.494590000000    -0.570224   
O83      O      0.496090000000     0.939050000000     0.607810000000    -0.557388   
O84      O      0.503260000000     0.056070000000     0.607040000000    -0.559931   
O85      O      0.495360000000     0.887640000000     0.557200000000    -0.565976   
O86      O      0.504920000000     0.107080000000     0.556100000000    -0.609442   
O87      O      0.387520000000     0.939080000000     0.502430000000    -0.5519     
O88      O      0.607290000000     0.938550000000     0.490760000000    -0.612516   
O89      O      0.607430000000     0.053670000000     0.498410000000    -0.622167   
O90      O      0.388910000000     0.056820000000     0.496260000000    -0.559827   
O91      O      0.440430000000     0.997220000000     0.608400000000    -0.555999   
O92      O      0.557950000000     0.998770000000     0.606550000000    -0.571231   
O93      O      0.538800000000     0.036910000000     0.537190000000    -1.46327    
O94      O      0.458270000000     0.957640000000     0.538530000000    -1.36906    
O95      O      0.539640000000     0.950530000000     0.543890000000    -1.0572     
O96      O      0.452540000000     0.039160000000     0.544790000000    -1.04895    
O97      O      0.440990000000     0.386930000000     0.000600000000    -0.620396   
O98      O      0.436710000000     0.605230000000     0.995890000000    -0.567749   
O99      O      0.387860000000     0.490340000000     0.056370000000    -0.605448   
O100     O      0.388680000000     0.497750000000     0.940230000000    -0.622263   
O101     O      0.440030000000     0.498460000000     0.889150000000    -0.63318    
O102     O      0.439010000000     0.493440000000     0.107540000000    -0.569745   
O103     O      0.386980000000     0.553060000000     0.993710000000    -0.610121   
O104     O      0.389350000000     0.437740000000     0.000840000000    -0.626439   
O105     O      0.457080000000     0.536070000000     0.958190000000    -1.46834    
O106     O      0.458330000000     0.456090000000     0.037910000000    -1.46757    
O107     O      0.455510000000     0.542450000000     0.044560000000    -1.05697    
O108     O      0.456780000000     0.454630000000     0.956620000000    -1.63743    
O109     O      0.554800000000     0.607430000000     0.999440000000    -0.562352   
O110     O      0.557930000000     0.387940000000     0.993500000000    -0.608822   
O111     O      0.499040000000     0.554660000000     0.107710000000    -0.569305   
O112     O      0.491630000000     0.554620000000     0.888380000000    -0.617447   
O113     O      0.501460000000     0.439510000000     0.888950000000    -0.633025   
O114     O      0.495240000000     0.438370000000     0.107580000000    -0.576172   
O115     O      0.607460000000     0.499930000000     0.055930000000    -0.570262   
O116     O      0.607180000000     0.495940000000     0.939830000000    -0.57771    
O117     O      0.556640000000     0.498810000000     0.107540000000    -0.561036   
O118     O      0.556240000000     0.492700000000     0.888520000000    -0.613208   
O119     O      0.498080000000     0.606260000000     0.057350000000    -0.557664   
O120     O      0.493800000000     0.386900000000     0.056710000000    -0.602424   
O121     O      0.502270000000     0.387900000000     0.939720000000    -0.620769   
O122     O      0.492240000000     0.606160000000     0.939200000000    -0.565734   
O123     O      0.606420000000     0.556580000000     0.999420000000    -0.569158   
O124     O      0.607990000000     0.440230000000     0.995390000000    -0.575951   
O125     O      0.538090000000     0.457290000000     0.958100000000    -1.46964    
O126     O      0.536880000000     0.537230000000     0.037930000000    -1.37014    
O127     O      0.544580000000     0.455850000000     0.044340000000    -1.06464    
O128     O      0.543170000000     0.543940000000     0.956700000000    -1.05981    


