data_structure

_audit_creation_method RASPA-1.0
_audit_creation_date 2023-5-19
_audit_author_name 'Poobodin Mano'

_cell_length_a    20.6912
_cell_length_b    20.6961
_cell_length_c    20.7088
_cell_angle_alpha 90
_cell_angle_beta  90
_cell_angle_gamma 90
_cell_volume      8868.07

_symmetry_cell_setting          triclinic
_symmetry_space_group_name_Hall 'P 1'
_symmetry_space_group_name_H-M  'P 1'
_symmetry_Int_Tables_number     1

_symmetry_equiv_pos_as_xyz 'x,y,z'

loop_
_atom_site_label
_atom_site_type_symbol
_atom_site_fract_x
_atom_site_fract_y
_atom_site_fract_z
_atom_site_charge
C1       C      0.977530000000     0.149160000000     0.149430000000     0.503111   
C2       C      0.991600000000     0.840500000000     0.152910000000     0.501163   
C3       C      0.831780000000     0.996600000000     0.143740000000     0.503397   
C4       C      0.140460000000     0.989950000000     0.157980000000     0.506688   
C5       C      0.003040000000     0.837870000000     0.842910000000     0.495098   
C6       C      0.016790000000     0.148230000000     0.839770000000     0.500673   
C7       C      0.838520000000     0.841010000000     0.992830000000     0.493277   
C8       C      0.148930000000     0.839010000000     0.013100000000     0.500369   
C9       C      0.150390000000     0.148060000000     0.005220000000     0.499821   
C10      C      0.838910000000     0.151590000000     0.987460000000     0.499767   
C11      C      0.846700000000     0.994060000000     0.835200000000     0.500478   
C12      C      0.155510000000     0.004810000000     0.848100000000     0.505006   
C13      C      0.983850000000     0.340590000000     0.341340000000     0.500322   
C14      C      0.008620000000     0.650350000000     0.339860000000     0.503238   
C15      C      0.837530000000     0.488910000000     0.342320000000     0.504155   
C16      C      0.145380000000     0.491050000000     0.337120000000     0.508771   
C17      C      0.997610000000     0.646360000000     0.653810000000     0.492637   
C18      C      0.003440000000     0.338530000000     0.650610000000     0.496119   
C19      C      0.839260000000     0.650480000000     0.492360000000     0.497788   
C20      C      0.149480000000     0.650130000000     0.491880000000     0.508731   
C21      C      0.149690000000     0.340580000000     0.490600000000     0.503324   
C22      C      0.838550000000     0.342210000000     0.483280000000     0.506874   
C23      C      0.841630000000     0.496180000000     0.651680000000     0.49285    
C24      C      0.156550000000     0.496410000000     0.643680000000     0.499015   
C25      C      0.643290000000     0.989350000000     0.335660000000     0.505177   
C26      C      0.334370000000     0.998220000000     0.346420000000     0.503862   
C27      C      0.501090000000     0.844160000000     0.339520000000     0.5087     
C28      C      0.474890000000     0.153230000000     0.342720000000     0.503472   
C29      C      0.347950000000     0.998080000000     0.658960000000     0.494585   
C30      C      0.655580000000     0.003750000000     0.643870000000     0.513849   
C31      C      0.342620000000     0.839760000000     0.502200000000     0.498316   
C32      C      0.338640000000     0.151580000000     0.500650000000     0.50339    
C33      C      0.650280000000     0.150850000000     0.489910000000     0.503528   
C34      C      0.651050000000     0.842860000000     0.490230000000     0.507732   
C35      C      0.492480000000     0.841990000000     0.648990000000     0.499492   
C36      C      0.512780000000     0.152010000000     0.649590000000     0.508037   
C37      C      0.337460000000     0.339860000000     0.995200000000     0.498543   
C38      C      0.331300000000     0.648540000000     0.982760000000     0.50291    
C39      C      0.334240000000     0.495230000000     0.148780000000     0.50745    
C40      C      0.335760000000     0.495710000000     0.839970000000     0.49202    
C41      C      0.642390000000     0.654150000000     0.997240000000     0.49772    
C42      C      0.647720000000     0.342200000000     0.993770000000     0.501005   
C43      C      0.494470000000     0.651690000000     0.148410000000     0.496288   
C44      C      0.479890000000     0.649690000000     0.839430000000     0.510367   
C45      C      0.505760000000     0.341650000000     0.842070000000     0.507683   
C46      C      0.483770000000     0.340670000000     0.150740000000     0.499088   
C47      C      0.644280000000     0.499710000000     0.151300000000     0.494797   
C48      C      0.646820000000     0.490210000000     0.841310000000     0.507607   
C49      C      0.494360000000     0.225570000000     0.183310000000    -0.00356552 
C50      C      0.487790000000     0.313340000000     0.267070000000    -0.0128705  
C51      C      0.454910000000     0.181230000000     0.227970000000    -0.00624876 
C52      C      0.444620000000     0.269360000000     0.308280000000     0.0274316  
C53      C      0.517600000000     0.681570000000     0.261170000000    -0.00415257 
C54      C      0.483440000000     0.766500000000     0.178640000000    -0.0143543  
C55      C      0.491490000000     0.729470000000     0.310830000000    -0.000505762
C56      C      0.516100000000     0.814690000000     0.224750000000     0.0371941  
C57      C      0.469140000000     0.813170000000     0.761740000000    -0.00380445 
C58      C      0.500400000000     0.726930000000     0.679370000000    -0.0143496  
C59      C      0.492430000000     0.764020000000     0.811470000000     1.60994e-05
C60      C      0.465050000000     0.680130000000     0.724880000000     0.0381556  
C61      C      0.536560000000     0.180960000000     0.763030000000    -0.00446256 
C62      C      0.509550000000     0.266910000000     0.678840000000    -0.01137    
C63      C      0.505080000000     0.226660000000     0.811830000000    -2.66313e-05
C64      C      0.535480000000     0.314180000000     0.729810000000     0.03478    
C65      C      0.722880000000     0.314350000000     0.470000000000    -0.00109694 
C66      C      0.808050000000     0.234310000000     0.443840000000    -0.0103479  
C67      C      0.683120000000     0.263270000000     0.505010000000    -0.00613978 
C68      C      0.767930000000     0.179030000000     0.473480000000     0.0283745  
C69      C      0.764820000000     0.810960000000     0.510520000000    -0.00172968 
C70      C      0.677700000000     0.727320000000     0.502040000000    -0.0105111  
C71      C      0.811460000000     0.765190000000     0.475580000000    -0.00623692 
C72      C      0.723260000000     0.684070000000     0.463080000000     0.0275076  
C73      C      0.223700000000     0.182310000000     0.518620000000    -0.00312352 
C74      C      0.309580000000     0.267090000000     0.512030000000    -0.00966428 
C75      C      0.178700000000     0.225260000000     0.478060000000    -0.00599652 
C76      C      0.266940000000     0.306300000000     0.466160000000     0.0276672  
C77      C      0.179670000000     0.763480000000     0.512990000000    -0.000890417
C78      C      0.261300000000     0.675580000000     0.521000000000    -0.00845917 
C79      C      0.230060000000     0.809030000000     0.484640000000    -0.00589882 
C80      C      0.314760000000     0.720890000000     0.496290000000     0.0275277  
C81      C      0.722560000000     0.502590000000     0.315150000000    -0.00326344 
C82      C      0.804780000000     0.473020000000     0.228460000000    -0.012248   
C83      C      0.673090000000     0.480010000000     0.264950000000    -0.00243919 
C84      C      0.759610000000     0.509030000000     0.181730000000     0.0350609  
C85      C      0.302440000000     0.516460000000     0.262260000000    -0.00282028 
C86      C      0.218330000000     0.504360000000     0.175970000000    -0.00920419 
C87      C      0.260230000000     0.476950000000     0.308290000000    -0.00395663 
C88      C      0.178940000000     0.461230000000     0.221120000000     0.0269108  
C89      C      0.295850000000     0.445640000000     0.739720000000    -0.00746498 
C90      C      0.227410000000     0.528340000000     0.800230000000    -0.011909   
C91      C      0.268260000000     0.470930000000     0.675440000000    -0.000365876
C92      C      0.210420000000     0.557030000000     0.734250000000     0.02605    
C93      C      0.727390000000     0.478980000000     0.679730000000    -0.00405166 
C94      C      0.810170000000     0.507690000000     0.766390000000    -0.015088   
C95      C      0.678070000000     0.505160000000     0.727890000000     0.000325062
C96      C      0.762270000000     0.475230000000     0.813220000000     0.0363026  
C97      C      0.806440000000     0.727170000000     0.009610000000    -0.00078954 
C98      C      0.726360000000     0.815840000000     0.022560000000    -0.0103666  
C99      C      0.755140000000     0.684550000000     0.978280000000    -0.00630543 
C100     C      0.672150000000     0.773210000000     0.994610000000     0.0267448  
C101     C      0.762400000000     0.311030000000     0.011920000000    -0.00280097 
C102     C      0.676610000000     0.226400000000     0.998970000000    -0.0106971  
C103     C      0.810270000000     0.267140000000     0.975630000000    -0.00608041 
C104     C      0.723110000000     0.186380000000     0.957510000000     0.0271141  
C105     C      0.264420000000     0.805190000000     0.022520000000    -0.00224526 
C106     C      0.176480000000     0.722500000000     0.023210000000    -0.0121305  
C107     C      0.301740000000     0.764400000000     0.972800000000    -0.00719321 
C108     C      0.212110000000     0.684320000000     0.970430000000     0.027685   
C109     C      0.222990000000     0.306910000000     0.979380000000    -0.00390774 
C110     C      0.310610000000     0.223610000000     0.986150000000    -0.0118645  
C111     C      0.178990000000     0.263200000000     0.019970000000    -0.00499941 
C112     C      0.267600000000     0.182530000000     0.030270000000     0.0289355  
C113     C      0.734040000000     0.013350000000     0.804740000000     0.000449916
C114     C      0.818820000000     0.986270000000     0.719340000000    -0.0161817  
C115     C      0.686540000000     0.985960000000     0.756300000000    -0.00260741 
C116     C      0.771050000000     0.018380000000     0.672030000000     0.0385033  
C117     C      0.187640000000     0.017100000000     0.733860000000     0.00190457 
C118     C      0.267570000000     0.036190000000     0.821690000000    -0.0110731  
C119     C      0.237130000000     0.979500000000     0.695140000000    -0.00820828 
C120     C      0.322500000000     0.008900000000     0.778420000000     0.028538   
C121     C      0.302140000000     0.981470000000     0.233360000000    -0.00149271 
C122     C      0.222300000000     0.967630000000     0.322630000000    -0.0110855  
C123     C      0.251060000000     0.012590000000     0.191310000000    -0.00278307 
C124     C      0.166530000000     0.988030000000     0.277040000000     0.0275023  
C125     C      0.715990000000     0.982030000000     0.168850000000    -0.00431283 
C126     C      0.800360000000     0.949010000000     0.246770000000    -0.00845103 
C127     C      0.672460000000     0.007080000000     0.222860000000    -0.000953846
C128     C      0.757520000000     0.967020000000     0.304790000000     0.0264628  
C129     C      0.995500000000     0.306950000000     0.766300000000    -0.00837325 
C130     C      0.999450000000     0.222410000000     0.679350000000    -0.0149052  
C131     C      0.036340000000     0.262780000000     0.810000000000    -0.00308023 
C132     C      0.043810000000     0.181410000000     0.722430000000     0.0291176  
C133     C      0.021410000000     0.807070000000     0.729150000000    -0.000583737
C134     C      0.033620000000     0.725790000000     0.816980000000    -0.0121112  
C135     C      0.985580000000     0.758870000000     0.687200000000    -0.00702867 
C136     C      0.010090000000     0.671350000000     0.771540000000     0.0295211  
C137     C      0.976690000000     0.807690000000     0.267890000000    -0.00391562 
C138     C      0.988050000000     0.724200000000     0.181090000000    -0.0139015  
C139     C      0.020100000000     0.766570000000     0.312200000000    -0.00523249 
C140     C      0.035790000000     0.687180000000     0.223840000000     0.0276146  
C141     C      0.975220000000     0.176360000000     0.265000000000    -0.00337447 
C142     C      0.961320000000     0.263910000000     0.179820000000    -0.014226   
C143     C      0.952650000000     0.229660000000     0.311270000000    -0.00225966 
C144     C      0.997660000000     0.307960000000     0.227160000000     0.0378173  
Eu1      Eu     0.987790000000     0.994540000000     0.110250000000     3.50969    
Eu2      Eu     0.994020000000     0.879580000000     0.997030000000     3.02741    
Eu3      Eu     0.993950000000     0.110040000000     0.994330000000     3.41898    
Eu4      Eu     0.879790000000     0.996040000000     0.991170000000     3.02516    
Eu5      Eu     0.108630000000     0.993240000000     0.000820000000     3.47777    
Eu6      Eu     0.999680000000     0.993580000000     0.881380000000     3.05743    
Eu7      Eu     0.991960000000     0.496110000000     0.380890000000     3.51068    
Eu8      Eu     0.994920000000     0.610570000000     0.495490000000     2.98591    
Eu9      Eu     0.993410000000     0.380140000000     0.496240000000     3.43637    
Eu10     Eu     0.880230000000     0.495640000000     0.496860000000     3.07705    
Eu11     Eu     0.108640000000     0.495150000000     0.493440000000     3.59524    
Eu12     Eu     0.997240000000     0.494150000000     0.610620000000     2.97392    
Eu13     Eu     0.489860000000     0.997450000000     0.381150000000     3.46574    
Eu14     Eu     0.379700000000     0.996640000000     0.500470000000     3.01761    
Eu15     Eu     0.609350000000     0.996880000000     0.492260000000     3.51711    
Eu16     Eu     0.495940000000     0.882830000000     0.494800000000     3.08478    
Eu17     Eu     0.493820000000     0.111950000000     0.496600000000     3.47885    
Eu18     Eu     0.499530000000     0.996980000000     0.610180000000     3.09118    
Eu19     Eu     0.375670000000     0.495450000000     0.994690000000     3.45531    
Eu20     Eu     0.488100000000     0.610860000000     0.994040000000     3.06776    
Eu21     Eu     0.492560000000     0.381490000000     0.996700000000     3.47521    
Eu22     Eu     0.489320000000     0.496420000000     0.109970000000     3.03206    
Eu23     Eu     0.491980000000     0.496170000000     0.880430000000     3.49226    
Eu24     Eu     0.605600000000     0.497460000000     0.996000000000     3.06484    
H1       H      0.930180000000     0.935770000000     0.099770000000    -0.186987   
H2       H      0.082410000000     0.088470000000     0.094760000000     0.410679   
H3       H      0.939440000000     0.101680000000     0.931740000000    -0.17104    
H4       H      0.104180000000     0.934080000000     0.941660000000    -0.17082    
H5       H      0.934070000000     0.556440000000     0.388710000000    -0.170671   
H6       H      0.084580000000     0.400000000000     0.399530000000     0.422172   
H7       H      0.934980000000     0.387610000000     0.556040000000    -0.162841   
H8       H      0.101070000000     0.553300000000     0.550910000000    -0.23205    
H9       H      0.432840000000     0.937990000000     0.391410000000    -0.188216   
H10      H      0.584000000000     0.091750000000     0.397120000000     0.410013   
H11      H      0.603310000000     0.939000000000     0.550790000000    -0.202674   
H12      H      0.438580000000     0.103510000000     0.558200000000    -0.179494   
H13      H      0.382610000000     0.554950000000     0.052160000000    -0.184139   
H14      H      0.399690000000     0.399900000000     0.900430000000     0.410079   
H15      H      0.550270000000     0.390560000000     0.055870000000    -0.182759   
H16      H      0.549860000000     0.555940000000     0.888340000000    -0.177197   
H17      H      0.538850000000     0.308450000000     0.283390000000     0.0354254  
H18      H      0.546440000000     0.214090000000     0.189920000000     0.0299208  
H19      H      0.469810000000     0.130630000000     0.218140000000     0.0367338  
H20      H      0.473090000000     0.364550000000     0.274580000000     0.0425612  
H21      H      0.394270000000     0.276890000000     0.290910000000     0.0296584  
H22      H      0.481660000000     0.213930000000     0.132480000000     0.0379139  
H23      H      0.403130000000     0.185370000000     0.214100000000     0.0347256  
H24      H      0.496010000000     0.778450000000     0.127810000000     0.0432855  
H25      H      0.571260000000     0.680820000000     0.263920000000     0.0388869  
H26      H      0.513180000000     0.717450000000     0.358490000000     0.0390055  
H27      H      0.430240000000     0.773150000000     0.182420000000     0.0374118  
H28      H      0.495940000000     0.863190000000     0.213470000000     0.0310546  
H29      H      0.500630000000     0.632490000000     0.274900000000     0.0390045  
H30      H      0.438380000000     0.722640000000     0.315490000000     0.0356192  
H31      H      0.488370000000     0.715440000000     0.628350000000     0.0442691  
H32      H      0.415570000000     0.816680000000     0.764150000000     0.0383208  
H33      H      0.470410000000     0.776680000000     0.858820000000     0.0384706  
H34      H      0.553220000000     0.718160000000     0.684140000000     0.0374963  
H35      H      0.482920000000     0.630770000000     0.713490000000     0.0307667  
H36      H      0.488500000000     0.861320000000     0.775620000000     0.0396894  
H37      H      0.545690000000     0.768710000000     0.817090000000     0.0359027  
H38      H      0.530720000000     0.278390000000     0.630700000000     0.0410444  
H39      H      0.589920000000     0.183220000000     0.768760000000     0.0383849  
H40      H      0.524520000000     0.215210000000     0.860590000000     0.0370025  
H41      H      0.456630000000     0.274970000000     0.673760000000     0.0340492  
H42      H      0.516380000000     0.362660000000     0.716780000000     0.0302872  
H43      H      0.521900000000     0.130770000000     0.775190000000     0.0396601  
H44      H      0.452230000000     0.217020000000     0.813320000000     0.0289845  
H45      H      0.798460000000     0.237870000000     0.390920000000     0.033958   
H46      H      0.706570000000     0.316670000000     0.418850000000     0.0320375  
H47      H      0.631280000000     0.275730000000     0.498450000000     0.0377206  
H48      H      0.860250000000     0.222490000000     0.449260000000     0.0431684  
H49      H      0.788980000000     0.167470000000     0.521500000000     0.0342746  
H50      H      0.712940000000     0.362000000000     0.492700000000     0.0385155  
H51      H      0.693550000000     0.266850000000     0.557590000000     0.0381726  
H52      H      0.680340000000     0.713710000000     0.554030000000     0.039131   
H53      H      0.772380000000     0.805430000000     0.563400000000     0.0334857  
H54      H      0.860750000000     0.775070000000     0.494420000000     0.0377352  
H55      H      0.627180000000     0.718970000000     0.485490000000     0.043437   
H56      H      0.717940000000     0.698550000000     0.411590000000     0.0310794  
H57      H      0.777530000000     0.861530000000     0.497800000000     0.0378829  
H58      H      0.811550000000     0.777820000000     0.423390000000     0.0353354  
H59      H      0.300660000000     0.283480000000     0.562490000000     0.0373098  
H60      H      0.212590000000     0.190770000000     0.570490000000     0.0345427  
H61      H      0.128340000000     0.215850000000     0.494070000000     0.0373986  
H62      H      0.361450000000     0.275990000000     0.501230000000     0.0429494  
H63      H      0.276030000000     0.287230000000     0.416720000000     0.0270852  
H64      H      0.212500000000     0.130910000000     0.507900000000     0.0383854  
H65      H      0.182300000000     0.209460000000     0.426850000000     0.0305115  
H66      H      0.261050000000     0.674690000000     0.574900000000     0.0374699  
H67      H      0.177340000000     0.771330000000     0.566100000000     0.0349809  
H68      H      0.217390000000     0.858710000000     0.500630000000     0.0380293  
H69      H      0.272930000000     0.625660000000     0.504610000000     0.0421711  
H70      H      0.322380000000     0.710210000000     0.444210000000     0.0316163  
H71      H      0.131820000000     0.776560000000     0.492320000000     0.0377042  
H72      H      0.225530000000     0.808050000000     0.431120000000     0.0351778  
H73      H      0.856040000000     0.483520000000     0.215960000000     0.0427881  
H74      H      0.718020000000     0.555750000000     0.321510000000     0.0382812  
H75      H      0.625070000000     0.499930000000     0.278580000000     0.0381155  
H76      H      0.798170000000     0.420260000000     0.220770000000     0.0368932  
H77      H      0.770400000000     0.490640000000     0.132440000000     0.0317111  
H78      H      0.710130000000     0.480100000000     0.362330000000     0.0384806  
H79      H      0.669130000000     0.426470000000     0.267320000000     0.0344877  
H80      H      0.201380000000     0.555230000000     0.180760000000     0.0392897  
H81      H      0.292770000000     0.568590000000     0.271060000000     0.0361169  
H82      H      0.270020000000     0.494440000000     0.358040000000     0.0394993  
H83      H      0.210220000000     0.489190000000     0.125030000000     0.0432235  
H84      H      0.197500000000     0.411170000000     0.214620000000     0.0272155  
H85      H      0.353950000000     0.507260000000     0.274310000000     0.0387003  
H86      H      0.276150000000     0.425660000000     0.305940000000     0.0305776  
H87      H      0.188430000000     0.494720000000     0.815590000000     0.0411259  
H88      H      0.268590000000     0.401250000000     0.752850000000     0.0271654  
H89      H      0.262800000000     0.429620000000     0.641430000000     0.0381491  
H90      H      0.231850000000     0.567730000000     0.836480000000     0.0428876  
H91      H      0.253600000000     0.586680000000     0.721700000000     0.0323538  
H92      H      0.346950000000     0.430740000000     0.732290000000     0.0300165  
H93      H      0.303590000000     0.505320000000     0.654010000000     0.0352674  
H94      H      0.860560000000     0.493290000000     0.778590000000     0.0432112  
H95      H      0.722430000000     0.425580000000     0.676700000000     0.039514   
H96      H      0.629660000000     0.486280000000     0.714150000000     0.0385577  
H97      H      0.807770000000     0.560800000000     0.774160000000     0.0380771  
H98      H      0.773130000000     0.494280000000     0.862230000000     0.0310031  
H99      H      0.714950000000     0.498550000000     0.631290000000     0.0399399  
H100     H      0.675990000000     0.558660000000     0.723430000000     0.0338722  
H101     H      0.726190000000     0.812880000000     0.076370000000     0.038684   
H102     H      0.808160000000     0.716150000000     0.062170000000     0.0366929  
H103     H      0.767180000000     0.633710000000     0.990640000000     0.0404771  
H104     H      0.715760000000     0.867010000000     0.009760000000     0.0433378  
H105     H      0.665850000000     0.786720000000     0.943020000000     0.0309693  
H106     H      0.854190000000     0.714430000000     0.988510000000     0.0375251  
H107     H      0.759610000000     0.689260000000     0.924970000000     0.0359925  
H108     H      0.679480000000     0.209630000000     0.050000000000     0.0382143  
H109     H      0.770130000000     0.304240000000     0.064620000000     0.0339091  
H110     H      0.859170000000     0.276310000000     0.995810000000     0.0384761  
H111     H      0.626220000000     0.218240000000     0.981920000000     0.0426873  
H112     H      0.718140000000     0.204520000000     0.907150000000     0.0316845  
H113     H      0.774220000000     0.362150000000     0.000460000000     0.0389622  
H114     H      0.811240000000     0.282480000000     0.924160000000     0.0357796  
H115     H      0.191570000000     0.703720000000     0.071310000000     0.0387635  
H116     H      0.282270000000     0.792190000000     0.071480000000     0.0354202  
H117     H      0.354170000000     0.773320000000     0.979800000000     0.0400478  
H118     H      0.123410000000     0.714880000000     0.019040000000     0.0432509  
H119     H      0.196430000000     0.705070000000     0.923380000000     0.0296825  
H120     H      0.275570000000     0.857050000000     0.014350000000     0.038164   
H121     H      0.289240000000     0.782640000000     0.923840000000     0.0351082  
H122     H      0.304090000000     0.207500000000     0.935230000000     0.0338871  
H123     H      0.211870000000     0.298370000000     0.927530000000     0.0300508  
H124     H      0.128320000000     0.272780000000     0.005110000000     0.0373928  
H125     H      0.362220000000     0.215830000000     0.999170000000     0.040911   
H126     H      0.276170000000     0.199840000000     0.080430000000     0.0261456  
H127     H      0.210920000000     0.358070000000     0.990290000000     0.0371934  
H128     H      0.183440000000     0.278210000000     0.071370000000     0.0310655  
H129     H      0.869100000000     0.002320000000     0.708790000000     0.0439146  
H130     H      0.728810000000     0.066800000000     0.806500000000     0.038422   
H131     H      0.637490000000     0.002980000000     0.770210000000     0.0400304  
H132     H      0.818180000000     0.933290000000     0.710410000000     0.0371874  
H133     H      0.782160000000     0.999510000000     0.622990000000     0.0304492  
H134     H      0.720400000000     0.994490000000     0.853130000000     0.0390207  
H135     H      0.686510000000     0.932340000000     0.759980000000     0.0363191  
H136     H      0.266180000000     0.090000000000     0.818710000000     0.0372972  
H137     H      0.188900000000     0.068480000000     0.718130000000     0.0353405  
H138     H      0.223700000000     0.983690000000     0.643370000000     0.0396397  
H139     H      0.278810000000     0.024050000000     0.872840000000     0.0426677  
H140     H      0.334900000000     0.960020000000     0.796980000000     0.0289855  
H141     H      0.139140000000     0.997210000000     0.722280000000     0.0386511  
H142     H      0.233190000000     0.927530000000     0.708320000000     0.03637    
H143     H      0.225560000000     0.913900000000     0.325970000000     0.0367004  
H144     H      0.304070000000     0.928890000000     0.222310000000     0.0351762  
H145     H      0.264800000000     0.003100000000     0.140330000000     0.0386061  
H146     H      0.210310000000     0.985250000000     0.372000000000     0.0401208  
H147     H      0.151560000000     0.037740000000     0.290870000000     0.0259157  
H148     H      0.349650000000     0.002940000000     0.220320000000     0.0383551  
H149     H      0.252970000000     0.065830000000     0.198590000000     0.0288429  
H150     H      0.795110000000     0.896690000000     0.234660000000     0.0356436  
H151     H      0.702820000000     0.930960000000     0.158370000000     0.0355432  
H152     H      0.621690000000     0.995340000000     0.209670000000     0.0364188  
H153     H      0.851660000000     0.955860000000     0.261440000000     0.0408132  
H154     H      0.778670000000     0.010790000000     0.327500000000     0.0307796  
H155     H      0.706470000000     0.010960000000     0.124590000000     0.0391902  
H156     H      0.676130000000     0.060680000000     0.224070000000     0.0269651  
H157     H      0.948510000000     0.206330000000     0.686000000000     0.0405345  
H158     H      0.943780000000     0.300260000000     0.779280000000     0.0364747  
H159     H      0.023020000000     0.273080000000     0.860900000000     0.0381716  
H160     H      0.012480000000     0.214310000000     0.627810000000     0.0432899  
H161     H      0.094010000000     0.198340000000     0.713060000000     0.0290279  
H162     H      0.008290000000     0.357970000000     0.777120000000     0.0399591  
H163     H      0.087940000000     0.276680000000     0.804120000000     0.0335714  
H164     H      0.087420000000     0.726620000000     0.817990000000     0.0365114  
H165     H      0.073770000000     0.804890000000     0.717100000000     0.0349159  
H166     H      0.995310000000     0.771660000000     0.635980000000     0.0379313  
H167     H      0.017810000000     0.713540000000     0.866820000000     0.0423709  
H168     H      0.961430000000     0.655920000000     0.788360000000     0.0308434  
H169     H      0.003580000000     0.856300000000     0.717150000000     0.0382219  
H170     H      0.932790000000     0.764940000000     0.695330000000     0.0358927  
H171     H      0.938500000000     0.704650000000     0.188910000000     0.0394311  
H172     H      0.925480000000     0.796010000000     0.279290000000     0.0329795  
H173     H      0.004630000000     0.775090000000     0.362830000000     0.0392904  
H174     H      0.000620000000     0.716560000000     0.129390000000     0.0445486  
H175     H      0.084170000000     0.709090000000     0.215190000000     0.0316251  
H176     H      0.984040000000     0.859550000000     0.279370000000     0.0381983  
H177     H      0.070470000000     0.784810000000     0.307760000000     0.0362469  
H178     H      0.976000000000     0.275330000000     0.129390000000     0.0396495  
H179     H      0.026280000000     0.163820000000     0.276190000000     0.0319426  
H180     H      0.965370000000     0.215000000000     0.361310000000     0.0364965  
H181     H      0.908870000000     0.275110000000     0.183210000000     0.037824   
H182     H      0.985870000000     0.358760000000     0.214320000000     0.0309252  
H183     H      0.945990000000     0.132210000000     0.274360000000     0.0383112  
H184     H      0.899050000000     0.232720000000     0.309150000000     0.0335742  
N1       N      0.462040000000     0.200110000000     0.296600000000    -0.189244   
N2       N      0.484260000000     0.294540000000     0.198470000000    -0.185181   
N3       N      0.504300000000     0.797340000000     0.292940000000    -0.191109   
N4       N      0.498290000000     0.698620000000     0.194780000000    -0.182793   
N5       N      0.477220000000     0.696750000000     0.793140000000    -0.19202    
N6       N      0.487960000000     0.795290000000     0.695450000000    -0.183356   
N7       N      0.515330000000     0.295380000000     0.795740000000    -0.193898   
N8       N      0.519860000000     0.198510000000     0.696030000000    -0.185683   
N9       N      0.698250000000     0.196730000000     0.483490000000    -0.191071   
N10      N      0.791600000000     0.297100000000     0.471870000000    -0.186677   
N11      N      0.791910000000     0.696650000000     0.482610000000    -0.18518    
N12      N      0.696960000000     0.795470000000     0.495630000000    -0.186695   
N13      N      0.197240000000     0.294330000000     0.482170000000    -0.191564   
N14      N      0.292180000000     0.198360000000     0.507090000000    -0.186068   
N15      N      0.297060000000     0.790960000000     0.502050000000    -0.185124   
N16      N      0.196620000000     0.695790000000     0.500360000000    -0.187115   
N17      N      0.690890000000     0.498560000000     0.198400000000    -0.187767   
N18      N      0.789710000000     0.487470000000     0.296600000000    -0.184782   
N19      N      0.191200000000     0.480720000000     0.289730000000    -0.1924     
N20      N      0.286920000000     0.501530000000     0.194430000000    -0.187311   
N21      N      0.206470000000     0.504490000000     0.686200000000    -0.188514   
N22      N      0.288950000000     0.492400000000     0.793440000000    -0.186395   
N23      N      0.694320000000     0.488530000000     0.795210000000    -0.190501   
N24      N      0.794510000000     0.494760000000     0.698110000000    -0.181789   
N25      N      0.688410000000     0.702630000000     0.997120000000    -0.184465   
N26      N      0.790840000000     0.795730000000     0.000820000000    -0.183549   
N27      N      0.791460000000     0.198100000000     0.978610000000    -0.185162   
N28      N      0.694530000000     0.295200000000     0.996850000000    -0.185124   
N29      N      0.283500000000     0.695150000000     0.976960000000    -0.185904   
N30      N      0.194640000000     0.791230000000     0.019050000000    -0.184902   
N31      N      0.197860000000     0.194340000000     0.014320000000    -0.19083    
N32      N      0.291760000000     0.292060000000     0.990680000000    -0.189867   
N33      N      0.703180000000     0.004410000000     0.689580000000    -0.191751   
N34      N      0.801230000000     0.997240000000     0.787560000000    -0.184569   
N35      N      0.303650000000     0.001510000000     0.708760000000    -0.183769   
N36      N      0.203140000000     0.013370000000     0.802900000000    -0.186431   
N37      N      0.185310000000     0.989650000000     0.207260000000    -0.191116   
N38      N      0.286220000000     0.990360000000     0.301750000000    -0.186821   
N39      N      0.688970000000     0.981960000000     0.287760000000    -0.18975    
N40      N      0.784040000000     0.985030000000     0.188060000000    -0.18565    
N41      N      0.028840000000     0.193880000000     0.792160000000    -0.185742   
N42      N      0.003750000000     0.291190000000     0.697230000000    -0.182889   
N43      N      0.003350000000     0.691420000000     0.702310000000    -0.184366   
N44      N      0.012430000000     0.790690000000     0.797400000000    -0.183751   
N45      N      0.018800000000     0.697440000000     0.293340000000    -0.185835   
N46      N      0.988460000000     0.793050000000     0.199160000000    -0.184945   
N47      N      0.979550000000     0.293720000000     0.294740000000    -0.193065   
N48      N      0.970720000000     0.195250000000     0.196380000000    -0.187863   
O1       O      0.981070000000     0.168500000000     0.087240000000    -0.61842    
O2       O      0.992880000000     0.821740000000     0.090590000000    -0.569408   
O3       O      0.893180000000     0.998140000000     0.165440000000    -0.617228   
O4       O      0.077380000000     0.992800000000     0.173500000000    -0.637253   
O5       O      0.162490000000     0.989730000000     0.096670000000    -0.626888   
O6       O      0.815420000000     0.998820000000     0.080770000000    -0.567005   
O7       O      0.991230000000     0.902890000000     0.171960000000    -0.602761   
O8       O      0.980580000000     0.087070000000     0.168720000000    -0.635885   
O9       O      0.054760000000     0.931590000000     0.063420000000    -1.46464    
O10      O      0.928360000000     0.060130000000     0.056780000000    -1.45189    
O11      O      0.917900000000     0.922330000000     0.058600000000    -1.06084    
O12      O      0.056970000000     0.061080000000     0.064910000000    -1.62477    
O13      O      0.999480000000     0.819520000000     0.905250000000    -0.57145    
O14      O      0.012740000000     0.168350000000     0.901850000000    -0.594784   
O15      O      0.820480000000     0.903570000000     0.990150000000    -0.563269   
O16      O      0.168730000000     0.901180000000     0.011990000000    -0.605682   
O17      O      0.167700000000     0.085530000000     0.003800000000    -0.629567   
O18      O      0.821420000000     0.089120000000     0.989400000000    -0.568584   
O19      O      0.909510000000     0.991200000000     0.818120000000    -0.569693   
O20      O      0.094480000000     0.998370000000     0.826640000000    -0.578078   
O21      O      0.825520000000     0.996250000000     0.896580000000    -0.574634   
O22      O      0.172120000000     0.004910000000     0.911210000000    -0.605523   
O23      O      0.900580000000     0.820910000000     0.993290000000    -0.560881   
O24      O      0.901290000000     0.170950000000     0.991170000000    -0.598764   
O25      O      0.088260000000     0.167960000000     0.000920000000    -0.618177   
O26      O      0.086590000000     0.820790000000     0.007950000000    -0.568176   
O27      O      0.002110000000     0.899980000000     0.823120000000    -0.565938   
O28      O      0.010030000000     0.085980000000     0.822500000000    -0.567362   
O29      O      0.060910000000     0.057540000000     0.936050000000    -1.45719    
O30      O      0.933240000000     0.931000000000     0.930410000000    -1.3573     
O31      O      0.925310000000     0.060810000000     0.918730000000    -1.05918    
O32      O      0.063730000000     0.920520000000     0.926630000000    -1.06894    
O33      O      0.983820000000     0.321490000000     0.403600000000    -0.615095   
O34      O      0.004320000000     0.669340000000     0.402130000000    -0.557874   
O35      O      0.899470000000     0.486740000000     0.322230000000    -0.617409   
O36      O      0.082910000000     0.494210000000     0.320140000000    -0.636599   
O37      O      0.165650000000     0.494090000000     0.398990000000    -0.63885    
O38      O      0.819730000000     0.493870000000     0.404740000000    -0.570054   
O39      O      0.003950000000     0.588070000000     0.321540000000    -0.607735   
O40      O      0.988420000000     0.402730000000     0.322040000000    -0.619624   
O41      O      0.057720000000     0.558380000000     0.430390000000    -1.46928    
O42      O      0.930760000000     0.431920000000     0.432890000000    -1.4743     
O43      O      0.920920000000     0.569050000000     0.430120000000    -1.07035    
O44      O      0.058600000000     0.428370000000     0.427930000000    -1.65964    
O45      O      0.996110000000     0.666880000000     0.591610000000    -0.548509   
O46      O      0.002030000000     0.319900000000     0.588100000000    -0.611432   
O47      O      0.821670000000     0.588220000000     0.496970000000    -0.574324   
O48      O      0.167960000000     0.587660000000     0.487870000000    -0.617235   
O49      O      0.167290000000     0.402880000000     0.493530000000    -0.642108   
O50      O      0.820050000000     0.404160000000     0.489890000000    -0.578105   
O51      O      0.904140000000     0.497780000000     0.670570000000    -0.548012   
O52      O      0.094920000000     0.500400000000     0.665430000000    -0.541709   
O53      O      0.822320000000     0.494250000000     0.589640000000    -0.576002   
O54      O      0.172740000000     0.487530000000     0.581460000000    -0.624277   
O55      O      0.901610000000     0.669880000000     0.493230000000    -0.565083   
O56      O      0.900620000000     0.322200000000     0.484760000000    -0.603258   
O57      O      0.087320000000     0.321050000000     0.492730000000    -0.621237   
O58      O      0.087450000000     0.669710000000     0.493720000000    -0.568805   
O59      O      0.994880000000     0.584070000000     0.671220000000    -0.57056    
O60      O      0.002360000000     0.400830000000     0.669810000000    -0.569147   
O61      O      0.060020000000     0.430090000000     0.557720000000    -1.45409    
O62      O      0.932830000000     0.558540000000     0.560240000000    -1.34721    
O63      O      0.922480000000     0.428880000000     0.569710000000    -1.06398    
O64      O      0.061660000000     0.567630000000     0.567020000000    -1.02119    
O65      O      0.664000000000     0.990940000000     0.397330000000    -0.633937   
O66      O      0.317790000000     0.997470000000     0.409430000000    -0.574571   
O67      O      0.500750000000     0.906480000000     0.320590000000    -0.606588   
O68      O      0.478810000000     0.091090000000     0.323120000000    -0.623732   
O69      O      0.481710000000     0.171120000000     0.404750000000    -0.629816   
O70      O      0.497760000000     0.824840000000     0.401550000000    -0.576457   
O71      O      0.395800000000     0.001010000000     0.324860000000    -0.612564   
O72      O      0.580620000000     0.994430000000     0.318280000000    -0.62344    
O73      O      0.428730000000     0.061020000000     0.434930000000    -1.45704    
O74      O      0.556870000000     0.934970000000     0.429030000000    -1.47308    
O75      O      0.419810000000     0.924110000000     0.432250000000    -1.0508     
O76      O      0.558440000000     0.064230000000     0.426770000000    -1.63694    
O77      O      0.325740000000     0.996360000000     0.597470000000    -0.554981   
O78      O      0.672660000000     0.008460000000     0.581260000000    -0.607165   
O79      O      0.405000000000     0.823050000000     0.496560000000    -0.578674   
O80      O      0.400870000000     0.170790000000     0.496570000000    -0.607816   
O81      O      0.588000000000     0.170660000000     0.492520000000    -0.620448   
O82      O      0.588670000000     0.824390000000     0.490780000000    -0.581758   
O83      O      0.492860000000     0.904140000000     0.668360000000    -0.568997   
O84      O      0.511570000000     0.089700000000     0.668470000000    -0.573731   
O85      O      0.495890000000     0.823000000000     0.586870000000    -0.569113   
O86      O      0.506680000000     0.171580000000     0.587760000000    -0.615195   
O87      O      0.322250000000     0.901840000000     0.504940000000    -0.558345   
O88      O      0.670440000000     0.905090000000     0.488700000000    -0.609321   
O89      O      0.668170000000     0.088570000000     0.492240000000    -0.637874   
O90      O      0.319790000000     0.089230000000     0.501620000000    -0.57098    
O91      O      0.411050000000     0.997190000000     0.674090000000    -0.57621    
O92      O      0.594360000000     0.996600000000     0.664590000000    -0.587376   
O93      O      0.560790000000     0.061320000000     0.556280000000    -1.4738     
O94      O      0.434460000000     0.933390000000     0.560950000000    -1.37599    
O95      O      0.563880000000     0.923950000000     0.566390000000    -1.05918    
O96      O      0.424700000000     0.062860000000     0.571960000000    -1.0615     
O97      O      0.400070000000     0.321860000000     0.997130000000    -0.632211   
O98      O      0.393420000000     0.668330000000     0.986750000000    -0.565525   
O99      O      0.315850000000     0.490590000000     0.086480000000    -0.61378    
O100     O      0.316340000000     0.501100000000     0.901820000000    -0.611118   
O101     O      0.398160000000     0.490810000000     0.821150000000    -0.620434   
O102     O      0.396240000000     0.497670000000     0.168410000000    -0.578103   
O103     O      0.314290000000     0.585870000000     0.984440000000    -0.602297   
O104     O      0.317340000000     0.401830000000     0.994840000000    -0.628322   
O105     O      0.426040000000     0.557770000000     0.929920000000    -1.4694     
O106     O      0.426270000000     0.431480000000     0.058300000000    -1.4512     
O107     O      0.422650000000     0.569070000000     0.067290000000    -1.05464    
O108     O      0.425790000000     0.428430000000     0.928610000000    -1.63376    
O109     O      0.579670000000     0.670970000000     0.994650000000    -0.570487   
O110     O      0.585460000000     0.322920000000     0.991090000000    -0.609452   
O111     O      0.496740000000     0.589550000000     0.167780000000    -0.566121   
O112     O      0.478410000000     0.587350000000     0.820440000000    -0.615209   
O113     O      0.504420000000     0.403770000000     0.822860000000    -0.633271   
O114     O      0.484310000000     0.403280000000     0.168890000000    -0.570536   
O115     O      0.663730000000     0.503020000000     0.089240000000    -0.567682   
O116     O      0.665090000000     0.489990000000     0.903760000000    -0.578784   
O117     O      0.581880000000     0.495610000000     0.169820000000    -0.560032   
O118     O      0.584760000000     0.493220000000     0.821360000000    -0.610182   
O119     O      0.488510000000     0.670490000000     0.086370000000    -0.570334   
O120     O      0.485100000000     0.321000000000     0.088600000000    -0.607101   
O121     O      0.499380000000     0.322250000000     0.903950000000    -0.627108   
O122     O      0.485290000000     0.668880000000     0.901280000000    -0.581144   
O123     O      0.662750000000     0.592090000000     0.997420000000    -0.56421    
O124     O      0.666200000000     0.404710000000     0.996350000000    -0.566905   
O125     O      0.554720000000     0.432970000000     0.932540000000    -1.46805    
O126     O      0.552010000000     0.560360000000     0.058100000000    -1.36988    
O127     O      0.563830000000     0.431400000000     0.069360000000    -1.06       
O128     O      0.563030000000     0.569900000000     0.929200000000    -1.06261    
S1       S      0.445870000000     0.294010000000     0.382580000000    -0.00159122 
S2       S      0.593050000000     0.818260000000     0.211550000000    -0.00549903 
S3       S      0.388130000000     0.680400000000     0.711190000000    -0.00891709 
S4       S      0.613440000000     0.318920000000     0.726420000000    -0.00494061 
S5       S      0.778580000000     0.116490000000     0.427030000000    -0.0105192  
S6       S      0.697820000000     0.610020000000     0.468010000000     0.000993893
S7       S      0.291350000000     0.380820000000     0.465600000000    -0.00331917 
S8       S      0.380420000000     0.700720000000     0.534470000000     0.00338281 
S9       S      0.775230000000     0.585570000000     0.181660000000    -0.00790104 
S10      S      0.104420000000     0.460240000000     0.197080000000     0.000251427
S11      S      0.147230000000     0.616950000000     0.731510000000     0.0114968  
S12      S      0.774050000000     0.398040000000     0.815580000000    -0.00772829 
S13      S      0.606210000000     0.792970000000     0.032490000000     0.00244842 
S14      S      0.698500000000     0.111930000000     0.956550000000    -9.18185e-06
S15      S      0.187380000000     0.609960000000     0.970930000000     0.00117472 
S16      S      0.292550000000     0.108220000000     0.028050000000    -0.00783296 
S17      S      0.782170000000     0.095680000000     0.669970000000    -0.00413564 
S18      S      0.385230000000     0.055000000000     0.789580000000    -0.000555911
S19      S      0.106040000000     0.940120000000     0.291890000000     0.00162895 
S20      S      0.763030000000     0.908240000000     0.356650000000     0.00879453 
S21      S      0.041040000000     0.106880000000     0.698470000000     0.000189803
S22      S      0.064050000000     0.603090000000     0.783990000000     0.00474649 
S23      S      0.040890000000     0.613120000000     0.199360000000     0.00804904 
S24      S      0.074820000000     0.298680000000     0.218620000000    -0.0329973  


