data_structure

_audit_creation_method RASPA-1.0
_audit_creation_date 2023-5-19
_audit_author_name 'Poobodin Mano'

_cell_length_a    20.7067
_cell_length_b    20.6901
_cell_length_c    20.6742
_cell_angle_alpha 90
_cell_angle_beta  90
_cell_angle_gamma 90
_cell_volume      8857.32

_symmetry_cell_setting          triclinic
_symmetry_space_group_name_Hall 'P 1'
_symmetry_space_group_name_H-M  'P 1'
_symmetry_Int_Tables_number     1

_symmetry_equiv_pos_as_xyz 'x,y,z'

loop_
_atom_site_label
_atom_site_type_symbol
_atom_site_fract_x
_atom_site_fract_y
_atom_site_fract_z
_atom_site_charge
C1       C      0.984940000000     0.145560000000     0.152430000000     0.502677   
C2       C      0.003870000000     0.834490000000     0.146120000000     0.511124   
C3       C      0.837010000000     0.995730000000     0.148250000000     0.507485   
C4       C      0.144940000000     0.989980000000     0.153680000000     0.510335   
C5       C      0.995070000000     0.843570000000     0.834820000000     0.501102   
C6       C      0.012140000000     0.154050000000     0.844320000000     0.50375    
C7       C      0.840480000000     0.837570000000     0.984800000000     0.491377   
C8       C      0.151600000000     0.841300000000     0.005390000000     0.515325   
C9       C      0.146360000000     0.151310000000     0.999360000000     0.510344   
C10      C      0.838340000000     0.148470000000     0.003670000000     0.508978   
C11      C      0.842650000000     0.995670000000     0.836590000000     0.496394   
C12      C      0.154180000000     0.004630000000     0.844050000000     0.514218   
C13      C      0.988470000000     0.333920000000     0.344710000000     0.507955   
C14      C      0.004240000000     0.644840000000     0.336880000000     0.506206   
C15      C      0.842910000000     0.478690000000     0.334900000000     0.510963   
C16      C      0.151450000000     0.498130000000     0.343850000000     0.503095   
C17      C      0.986950000000     0.651340000000     0.646880000000     0.499014   
C18      C      0.007870000000     0.343740000000     0.655380000000     0.517905   
C19      C      0.835980000000     0.645740000000     0.486560000000     0.499997   
C20      C      0.146860000000     0.650250000000     0.491210000000     0.511285   
C21      C      0.148510000000     0.338500000000     0.503890000000     0.509502   
C22      C      0.839690000000     0.335970000000     0.491100000000     0.51036    
C23      C      0.833060000000     0.494700000000     0.645540000000     0.503299   
C24      C      0.142640000000     0.477950000000     0.655530000000     0.513162   
C25      C      0.645050000000     0.989490000000     0.336440000000     0.50878    
C26      C      0.336480000000     0.002990000000     0.341670000000     0.508603   
C27      C      0.492830000000     0.842200000000     0.334950000000     0.512253   
C28      C      0.489380000000     0.150510000000     0.342270000000     0.505745   
C29      C      0.341270000000     0.992050000000     0.651780000000     0.500858   
C30      C      0.651180000000     0.998920000000     0.648230000000     0.508301   
C31      C      0.338300000000     0.839080000000     0.496580000000     0.498079   
C32      C      0.340830000000     0.150860000000     0.493510000000     0.507709   
C33      C      0.651000000000     0.145510000000     0.499590000000     0.509199   
C34      C      0.648630000000     0.837810000000     0.482440000000     0.508231   
C35      C      0.491650000000     0.835960000000     0.646960000000     0.499191   
C36      C      0.504520000000     0.147060000000     0.651620000000     0.512789   
C37      C      0.337660000000     0.339350000000     0.996430000000     0.508837   
C38      C      0.645760000000     0.335730000000     0.003610000000     0.514436   
C39      C      0.488130000000     0.334240000000     0.843040000000     0.50977    
C40      C      0.495580000000     0.342650000000     0.154000000000     0.509165   
C41      C      0.647820000000     0.648900000000     0.984610000000     0.494298   
C42      C      0.338020000000     0.648720000000     0.001870000000     0.510082   
C43      C      0.644970000000     0.493210000000     0.837400000000     0.498455   
C44      C      0.649810000000     0.484440000000     0.148050000000     0.508388   
C45      C      0.339420000000     0.504540000000     0.151200000000     0.506162   
C46      C      0.333290000000     0.474110000000     0.843840000000     0.502905   
C47      C      0.493280000000     0.643940000000     0.835210000000     0.50063    
C48      C      0.488990000000     0.650850000000     0.147440000000     0.511385   
C49      C      0.492740000000     0.183680000000     0.231920000000     0.0326356  
C50      C      0.488270000000     0.261980000000     0.314150000000     0.0224167  
C51      C      0.494930000000     0.232520000000     0.185480000000     0.0314608  
C52      C      0.489890000000     0.311520000000     0.268000000000     0.0617267  
C53      C      0.500850000000     0.684330000000     0.256690000000     0.0389256  
C54      C      0.475010000000     0.761070000000     0.176700000000     0.0254706  
C55      C      0.502230000000     0.732970000000     0.303120000000     0.0343874  
C56      C      0.473470000000     0.809930000000     0.223530000000     0.0656966  
C57      C      0.485520000000     0.802540000000     0.757090000000     0.0360585  
C58      C      0.498800000000     0.724740000000     0.675280000000     0.0258142  
C59      C      0.486110000000     0.753750000000     0.803600000000     0.0334788  
C60      C      0.501190000000     0.675450000000     0.721670000000     0.0652518  
C61      C      0.483500000000     0.223700000000     0.809990000000     0.0365255  
C62      C      0.509920000000     0.304630000000     0.734540000000     0.0265211  
C63      C      0.488950000000     0.177050000000     0.761360000000     0.0326013  
C64      C      0.518210000000     0.258180000000     0.686290000000     0.0656232  
C65      C      0.729530000000     0.303220000000     0.484620000000     0.0351371  
C66      C      0.810270000000     0.226070000000     0.505530000000     0.02456    
C67      C      0.682640000000     0.254920000000     0.487880000000     0.0300392  
C68      C      0.763630000000     0.177450000000     0.510110000000     0.0620422  
C69      C      0.758700000000     0.804830000000     0.488340000000     0.038404   
C70      C      0.677570000000     0.727280000000     0.470740000000     0.0254058  
C71      C      0.805070000000     0.755960000000     0.489770000000     0.0329432  
C72      C      0.723920000000     0.678020000000     0.470040000000     0.0656064  
C73      C      0.307830000000     0.261620000000     0.492540000000     0.0361131  
C74      C      0.230390000000     0.179420000000     0.504230000000     0.0252707  
C75      C      0.258920000000     0.308110000000     0.496410000000     0.0310773  
C76      C      0.181210000000     0.225370000000     0.509310000000     0.0630093  
C77      C      0.305610000000     0.728550000000     0.493160000000     0.0360317  
C78      C      0.227100000000     0.810510000000     0.496280000000     0.0256459  
C79      C      0.256920000000     0.681910000000     0.491160000000     0.0359901  
C80      C      0.177770000000     0.764290000000     0.494250000000     0.0659426  
C81      C      0.683550000000     0.479650000000     0.258170000000     0.0367206  
C82      C      0.761110000000     0.474560000000     0.175350000000     0.0252461  
C83      C      0.732620000000     0.477030000000     0.304300000000     0.0319567  
C84      C      0.810880000000     0.471700000000     0.221250000000     0.0654006  
C85      C      0.262490000000     0.497540000000     0.311270000000     0.0325126  
C86      C      0.180810000000     0.511420000000     0.233610000000     0.0230947  
C87      C      0.309160000000     0.499860000000     0.262200000000     0.0305291  
C88      C      0.227030000000     0.515720000000     0.184450000000     0.0619731  
C89      C      0.300330000000     0.465350000000     0.733800000000     0.0352951  
C90      C      0.221910000000     0.460340000000     0.815770000000     0.0263264  
C91      C      0.251700000000     0.465650000000     0.687210000000     0.0364589  
C92      C      0.172080000000     0.460740000000     0.769280000000     0.0657507  
C93      C      0.754590000000     0.502720000000     0.803910000000     0.0358191  
C94      C      0.673730000000     0.483340000000     0.726470000000     0.0240261  
C95      C      0.801080000000     0.503070000000     0.755150000000     0.0344493  
C96      C      0.720090000000     0.482430000000     0.677140000000     0.0648558  
C97      C      0.807570000000     0.726620000000     0.987520000000     0.0350801  
C98      C      0.729830000000     0.808180000000     0.974210000000     0.0248047  
C99      C      0.758540000000     0.679890000000     0.987240000000     0.032956   
C100     C      0.680470000000     0.761810000000     0.972420000000     0.0649165  
C101     C      0.804750000000     0.258530000000     0.011770000000     0.0377836  
C102     C      0.727090000000     0.176340000000     0.000910000000     0.0274633  
C103     C      0.755740000000     0.304890000000     0.011440000000     0.0339743  
C104     C      0.677590000000     0.222310000000     0.999530000000     0.0643107  
C105     C      0.228460000000     0.682540000000     0.994730000000     0.0355664  
C106     C      0.309250000000     0.758360000000     0.019980000000     0.0258617  
C107     C      0.182250000000     0.731460000000     0.996060000000     0.0336062  
C108     C      0.262970000000     0.807580000000     0.023390000000     0.0657846  
C109     C      0.305030000000     0.228920000000     0.995020000000     0.0336428  
C110     C      0.226920000000     0.310850000000     0.004730000000     0.0242425  
C111     C      0.256410000000     0.182380000000     0.996870000000     0.0303447  
C112     C      0.177830000000     0.264600000000     0.007810000000     0.0631807  
C113     C      0.810180000000     0.989460000000     0.725800000000     0.0339498  
C114     C      0.732850000000     0.008820000000     0.806790000000     0.0262271  
C115     C      0.761370000000     0.990440000000     0.679030000000     0.0329202  
C116     C      0.684090000000     0.012600000000     0.760240000000     0.0648848  
C117     C      0.231200000000     0.993800000000     0.685140000000     0.0367158  
C118     C      0.313630000000     0.001920000000     0.762910000000     0.0262909  
C119     C      0.184960000000     0.998450000000     0.733890000000     0.0347364  
C120     C      0.267670000000     0.008120000000     0.812150000000     0.067023   
C121     C      0.302670000000     0.007850000000     0.231630000000     0.034111   
C122     C      0.225710000000     0.991500000000     0.313620000000     0.0237328  
C123     C      0.254170000000     0.003100000000     0.185100000000     0.0320712  
C124     C      0.176710000000     0.985510000000     0.267320000000     0.0625048  
C125     C      0.803690000000     0.998060000000     0.258590000000     0.0359545  
C126     C      0.725830000000     0.989300000000     0.176330000000     0.0249053  
C127     C      0.755010000000     0.995480000000     0.305150000000     0.0315237  
C128     C      0.676580000000     0.985620000000     0.222600000000     0.0633223  
C129     C      0.018630000000     0.186390000000     0.734170000000     0.035508   
C130     C      0.027490000000     0.265180000000     0.815530000000     0.0267386  
C131     C      0.017480000000     0.234660000000     0.687390000000     0.0365802  
C132     C      0.026110000000     0.314800000000     0.768770000000     0.0646087  
C133     C      0.983280000000     0.685090000000     0.756950000000     0.0360304  
C134     C      0.995130000000     0.762640000000     0.674700000000     0.0254717  
C135     C      0.985960000000     0.733860000000     0.803400000000     0.0336189  
C136     C      0.999290000000     0.811980000000     0.720950000000     0.0645855  
C137     C      0.001180000000     0.755270000000     0.304400000000     0.0366573  
C138     C      0.016240000000     0.674330000000     0.226080000000     0.026507   
C139     C      0.001480000000     0.802240000000     0.256040000000     0.0368303  
C140     C      0.017470000000     0.721220000000     0.177040000000     0.0645994  
C141     C      0.990960000000     0.255670000000     0.185770000000     0.0331562  
C142     C      0.974900000000     0.174430000000     0.263540000000     0.0219666  
C143     C      0.992090000000     0.302230000000     0.234560000000     0.030129   
C144     C      0.973780000000     0.221050000000     0.312820000000     0.062231   
Eu1      Eu     0.990950000000     0.990480000000     0.109430000000     3.49099    
Eu2      Eu     0.995500000000     0.879070000000     0.992060000000     3.03799    
Eu3      Eu     0.992460000000     0.108840000000     0.996540000000     3.49079    
Eu4      Eu     0.879720000000     0.993490000000     0.992690000000     3.02715    
Eu5      Eu     0.108700000000     0.994710000000     0.996950000000     3.52386    
Eu6      Eu     0.997270000000     0.997450000000     0.879600000000     3.03677    
Eu7      Eu     0.995320000000     0.491090000000     0.380650000000     3.48533    
Eu8      Eu     0.992200000000     0.607510000000     0.492580000000     3.01427    
Eu9      Eu     0.993460000000     0.378630000000     0.498800000000     3.51667    
Eu10     Eu     0.878320000000     0.491270000000     0.491870000000     3.04541    
Eu11     Eu     0.108320000000     0.494510000000     0.498780000000     3.48711    
Eu12     Eu     0.990120000000     0.495530000000     0.610140000000     3.0943     
Eu13     Eu     0.491090000000     0.994910000000     0.380090000000     3.50325    
Eu14     Eu     0.379220000000     0.994570000000     0.496240000000     3.04534    
Eu15     Eu     0.608490000000     0.991390000000     0.493630000000     3.45839    
Eu16     Eu     0.493220000000     0.878380000000     0.492070000000     3.04158    
Eu17     Eu     0.494390000000     0.108130000000     0.497030000000     3.50327    
Eu18     Eu     0.495770000000     0.991840000000     0.609500000000     3.06429    
Eu19     Eu     0.492650000000     0.378550000000     0.996810000000     3.51385    
Eu20     Eu     0.607770000000     0.492550000000     0.993270000000     3.03925    
Eu21     Eu     0.378080000000     0.494380000000     0.995470000000     3.48683    
Eu22     Eu     0.490280000000     0.490020000000     0.879880000000     3.0604     
Eu23     Eu     0.495040000000     0.496600000000     0.109480000000     3.50862    
Eu24     Eu     0.492680000000     0.608000000000     0.992310000000     3.03458    
H1       H      0.933320000000     0.930700000000     0.099200000000    -0.177386   
H2       H      0.084490000000     0.086850000000     0.093150000000     0.417611   
H3       H      0.935200000000     0.102890000000     0.935250000000    -0.171455   
H4       H      0.102910000000     0.936920000000     0.936920000000    -0.18582    
H5       H      0.935710000000     0.549490000000     0.385190000000    -0.174519   
H6       H      0.089450000000     0.397970000000     0.404650000000     0.411983   
H7       H      0.933800000000     0.386330000000     0.557260000000    -0.170668   
H8       H      0.098630000000     0.553760000000     0.557420000000    -0.174321   
H9       H      0.432250000000     0.936950000000     0.388010000000    -0.191203   
H10      H      0.587360000000     0.087820000000     0.400780000000     0.416139   
H11      H      0.601120000000     0.931830000000     0.551890000000    -0.17222    
H12      H      0.436800000000     0.099720000000     0.556460000000    -0.184785   
H13      H      0.550880000000     0.385130000000     0.937910000000    -0.193824   
H14      H      0.399200000000     0.402610000000     0.092360000000     0.416118   
H15      H      0.384380000000     0.551620000000     0.934300000000    -0.170455   
H16      H      0.554450000000     0.554500000000     0.099480000000    -0.182614   
H17      H      0.497670000000     0.217170000000     0.135440000000     0.0308216  
H18      H      0.494080000000     0.134060000000     0.215100000000     0.031228   
H19      H      0.485280000000     0.275580000000     0.364770000000     0.0354564  
H20      H      0.545690000000     0.412730000000     0.313650000000     0.0305507  
H21      H      0.514810000000     0.718780000000     0.352030000000     0.0331558  
H22      H      0.511890000000     0.635530000000     0.272310000000     0.0313411  
H23      H      0.462220000000     0.773500000000     0.127320000000     0.0371643  
H24      H      0.375750000000     0.883980000000     0.204560000000     0.0331004  
H25      H      0.479460000000     0.768680000000     0.853410000000     0.0332279  
H26      H      0.479280000000     0.851880000000     0.773620000000     0.0335906  
H27      H      0.504940000000     0.711430000000     0.624880000000     0.037925   
H28      H      0.584600000000     0.590140000000     0.688120000000     0.0331356  
H29      H      0.478360000000     0.127480000000     0.774650000000     0.0323389  
H30      H      0.470250000000     0.207870000000     0.858190000000     0.0315696  
H31      H      0.520640000000     0.354510000000     0.722280000000     0.0379668  
H32      H      0.618500000000     0.284310000000     0.617780000000     0.0338766  
H33      H      0.633090000000     0.269460000000     0.479230000000     0.0292057  
H34      H      0.713630000000     0.352120000000     0.474540000000     0.0325203  
H35      H      0.860200000000     0.213080000000     0.514820000000     0.0341779  
H36      H      0.794520000000     0.101120000000     0.602080000000     0.0335751  
H37      H      0.854560000000     0.770690000000     0.498490000000     0.0339088  
H38      H      0.774940000000     0.854100000000     0.495750000000     0.0315076  
H39      H      0.627610000000     0.714250000000     0.461640000000     0.0364014  
H40      H      0.696760000000     0.596330000000     0.380960000000     0.0316753  
H41      H      0.273540000000     0.358250000000     0.492270000000     0.0301366  
H42      H      0.357090000000     0.278260000000     0.486300000000     0.0322269  
H43      H      0.217020000000     0.128880000000     0.508570000000     0.0377157  
H44      H      0.073500000000     0.179220000000     0.469120000000     0.0268098  
H45      H      0.272330000000     0.631880000000     0.489030000000     0.032965   
H46      H      0.355250000000     0.711920000000     0.492470000000     0.0339367  
H47      H      0.213300000000     0.861070000000     0.498250000000     0.0377545  
H48      H      0.078580000000     0.808360000000     0.433830000000     0.0316879  
H49      H      0.717590000000     0.477720000000     0.354500000000     0.0324211  
H50      H      0.634220000000     0.482830000000     0.275340000000     0.0296517  
H51      H      0.774280000000     0.472380000000     0.124590000000     0.0367673  
H52      H      0.916790000000     0.521270000000     0.178830000000     0.0276892  
H53      H      0.359130000000     0.494040000000     0.276720000000     0.0314407  
H54      H      0.278830000000     0.490620000000     0.360600000000     0.0285583  
H55      H      0.130520000000     0.517940000000     0.220300000000     0.0363528  
H56      H      0.192780000000     0.604030000000     0.104840000000     0.0346285  
H57      H      0.267390000000     0.467570000000     0.637220000000     0.0337096  
H58      H      0.349910000000     0.467030000000     0.717020000000     0.034286   
H59      H      0.208430000000     0.458550000000     0.866450000000     0.0384019  
H60      H      0.067130000000     0.526630000000     0.793050000000     0.0347498  
H61      H      0.850520000000     0.511970000000     0.769970000000     0.0329739  
H62      H      0.770720000000     0.511060000000     0.853100000000     0.0326578  
H63      H      0.623830000000     0.473890000000     0.713470000000     0.0358903  
H64      H      0.671680000000     0.517030000000     0.568160000000     0.0319496  
H65      H      0.773340000000     0.630000000000     0.993280000000     0.0326498  
H66      H      0.856940000000     0.710220000000     0.993450000000     0.0308809  
H67      H      0.716430000000     0.858470000000     0.967680000000     0.0383027  
H68      H      0.595670000000     0.794520000000     0.888270000000     0.0332439  
H69      H      0.770390000000     0.354940000000     0.016670000000     0.0335485  
H70      H      0.854140000000     0.275250000000     0.016570000000     0.032711   
H71      H      0.713760000000     0.125860000000     0.995940000000     0.0363271  
H72      H      0.570520000000     0.176700000000     0.043380000000     0.0300599  
H73      H      0.133100000000     0.717530000000     0.984660000000     0.0334259  
H74      H      0.212500000000     0.634080000000     0.982780000000     0.0303818  
H75      H      0.359010000000     0.770410000000     0.031320000000     0.0372606  
H76      H      0.311310000000     0.919900000000     0.000620000000     0.0286512  
H77      H      0.271540000000     0.132360000000     0.994300000000     0.0301297  
H78      H      0.354510000000     0.212330000000     0.990620000000     0.029844   
H79      H      0.213390000000     0.361320000000     0.009400000000     0.0357418  
H80      H      0.069320000000     0.312110000000     0.969110000000     0.0303299  
H81      H      0.775530000000     0.980940000000     0.629460000000     0.0307187  
H82      H      0.859230000000     0.980470000000     0.709940000000     0.0300134  
H83      H      0.719670000000     0.017900000000     0.856790000000     0.0375662  
H84      H      0.607110000000     0.105230000000     0.788770000000     0.0335703  
H85      H      0.134890000000     0.996130000000     0.718790000000     0.034742   
H86      H      0.214260000000     0.988700000000     0.635770000000     0.0330783  
H87      H      0.364260000000     0.004700000000     0.776210000000     0.0375472  
H88      H      0.310110000000     0.089800000000     0.894320000000     0.0303544  
H89      H      0.268840000000     0.009410000000     0.135180000000     0.0302396  
H90      H      0.351560000000     0.016610000000     0.215030000000     0.0319098  
H91      H      0.212650000000     0.985650000000     0.364120000000     0.0370569  
H92      H      0.065720000000     0.021150000000     0.310690000000     0.0262395  
H93      H      0.770110000000     0.998930000000     0.355240000000     0.0316389  
H94      H      0.853080000000     0.002780000000     0.275380000000     0.0326114  
H95      H      0.712430000000     0.985810000000     0.125690000000     0.0375118  
H96      H      0.589380000000     0.906090000000     0.185410000000     0.037233   
H97      H      0.012850000000     0.218730000000     0.637700000000     0.033538   
H98      H      0.015380000000     0.136760000000     0.717620000000     0.033153   
H99      H      0.030570000000     0.278790000000     0.866020000000     0.0355618  
H100     H      0.980200000000     0.398570000000     0.852670000000     0.021299   
H101     H      0.981190000000     0.718890000000     0.853420000000     0.0329806  
H102     H      0.977160000000     0.635820000000     0.773760000000     0.0303701  
H103     H      0.999810000000     0.775820000000     0.624110000000     0.0379974  
H104     H      0.958970000000     0.920870000000     0.676230000000     0.029072   
H105     H      0.994530000000     0.851820000000     0.271480000000     0.0320682  
H106     H      0.994270000000     0.771410000000     0.353790000000     0.0312002  
H107     H      0.023270000000     0.624140000000     0.212500000000     0.0355472  
H108     H      0.978970000000     0.676580000000     0.067420000000     0.0286586  
H109     H      0.000070000000     0.351770000000     0.219500000000     0.0318508  
H110     H      0.997500000000     0.272090000000     0.136430000000     0.0308083  
H111     H      0.966720000000     0.124310000000     0.276730000000     0.0351889  
H112     H      0.885820000000     0.191350000000     0.394180000000     0.0341319  
N1       N      0.489840000000     0.198390000000     0.296280000000    -0.199663   
N2       N      0.493810000000     0.296730000000     0.202600000000    -0.203682   
N3       N      0.488380000000     0.698560000000     0.193360000000    -0.196817   
N4       N      0.489680000000     0.796080000000     0.287040000000    -0.200839   
N5       N      0.491590000000     0.788040000000     0.692900000000    -0.193739   
N6       N      0.493790000000     0.689940000000     0.786760000000    -0.1979     
N7       N      0.492730000000     0.287590000000     0.796130000000    -0.196298   
N8       N      0.504990000000     0.193900000000     0.699050000000    -0.201002   
N9       N      0.793380000000     0.288630000000     0.492890000000    -0.197275   
N10      N      0.699050000000     0.191700000000     0.499830000000    -0.203843   
N11      N      0.694810000000     0.790320000000     0.480270000000    -0.196392   
N12      N      0.788270000000     0.692180000000     0.482040000000    -0.197551   
N13      N      0.293420000000     0.197250000000     0.495980000000    -0.196065   
N14      N      0.195230000000     0.290730000000     0.503850000000    -0.202843   
N15      N      0.290700000000     0.792850000000     0.495680000000    -0.193271   
N16      N      0.192730000000     0.698870000000     0.491800000000    -0.199629   
N17      N      0.697800000000     0.479620000000     0.193690000000    -0.196225   
N18      N      0.796660000000     0.475170000000     0.286720000000    -0.199465   
N19      N      0.198220000000     0.501980000000     0.296730000000    -0.198597   
N20      N      0.292020000000     0.507350000000     0.198350000000    -0.202289   
N21      N      0.285510000000     0.466050000000     0.798140000000    -0.193775   
N22      N      0.187490000000     0.467670000000     0.704110000000    -0.199575   
N23      N      0.690870000000     0.493390000000     0.789530000000    -0.194129   
N24      N      0.784620000000     0.493480000000     0.691460000000    -0.198186   
N25      N      0.793090000000     0.790900000000     0.982170000000    -0.191938   
N26      N      0.694570000000     0.696780000000     0.981060000000    -0.195859   
N27      N      0.790430000000     0.194300000000     0.006000000000    -0.196397   
N28      N      0.691970000000     0.287600000000     0.005100000000    -0.199726   
N29      N      0.292050000000     0.696230000000     0.005460000000    -0.196374   
N30      N      0.198940000000     0.794460000000     0.008940000000    -0.199918   
N31      N      0.290190000000     0.293180000000     0.998150000000    -0.200695   
N32      N      0.192460000000     0.199460000000     0.001480000000    -0.203106   
N33      N      0.795660000000     0.997540000000     0.789770000000    -0.194065   
N34      N      0.698030000000     0.001260000000     0.695680000000    -0.199283   
N35      N      0.295520000000     0.995090000000     0.699680000000    -0.194603   
N36      N      0.202350000000     0.004650000000     0.797800000000    -0.19977    
N37      N      0.288510000000     0.001780000000     0.295860000000    -0.196147   
N38      N      0.190910000000     0.992110000000     0.202090000000    -0.204095   
N39      N      0.789120000000     0.994990000000     0.194170000000    -0.196054   
N40      N      0.691120000000     0.989700000000     0.288020000000    -0.202656   
N41      N      0.020100000000     0.201610000000     0.798420000000    -0.194413   
N42      N      0.017350000000     0.298950000000     0.703980000000    -0.200075   
N43      N      0.987780000000     0.699440000000     0.692610000000    -0.194331   
N44      N      0.993720000000     0.797610000000     0.786290000000    -0.197579   
N45      N      0.007400000000     0.691210000000     0.289390000000    -0.195436   
N46      N      0.008080000000     0.785970000000     0.191960000000    -0.199393   
N47      N      0.983570000000     0.191630000000     0.200300000000    -0.198845   
N48      N      0.984630000000     0.285670000000     0.298500000000    -0.202573   
O1       O      0.987780000000     0.165920000000     0.090520000000    -0.625184   
O2       O      0.999980000000     0.817940000000     0.083370000000    -0.57221    
O3       O      0.898870000000     0.996080000000     0.168600000000    -0.617675   
O4       O      0.082210000000     0.989290000000     0.170340000000    -0.633574   
O5       O      0.165370000000     0.991610000000     0.091620000000    -0.628494   
O6       O      0.819500000000     0.994110000000     0.085310000000    -0.566859   
O7       O      0.001630000000     0.896540000000     0.166760000000    -0.602378   
O8       O      0.984780000000     0.082670000000     0.170130000000    -0.618761   
O9       O      0.057180000000     0.930200000000     0.058500000000    -1.46985    
O10      O      0.929430000000     0.056080000000     0.058890000000    -1.46579    
O11      O      0.920350000000     0.918410000000     0.057650000000    -1.05932    
O12      O      0.057970000000     0.059480000000     0.064210000000    -1.64387    
O13      O      0.995280000000     0.822940000000     0.896890000000    -0.564437   
O14      O      0.008020000000     0.171670000000     0.907080000000    -0.602014   
O15      O      0.821610000000     0.900100000000     0.985720000000    -0.56036    
O16      O      0.169290000000     0.903850000000     0.006200000000    -0.615855   
O17      O      0.166320000000     0.089080000000     0.998270000000    -0.626971   
O18      O      0.820460000000     0.085930000000     0.998920000000    -0.572198   
O19      O      0.905270000000     0.996290000000     0.818090000000    -0.558751   
O20      O      0.092230000000     0.001980000000     0.823660000000    -0.566633   
O21      O      0.823060000000     0.995000000000     0.898830000000    -0.567398   
O22      O      0.170840000000     0.003840000000     0.906950000000    -0.616658   
O23      O      0.902890000000     0.818580000000     0.987580000000    -0.557483   
O24      O      0.900380000000     0.168430000000     0.004460000000    -0.612758   
O25      O      0.083910000000     0.168530000000     0.997990000000    -0.632278   
O26      O      0.089670000000     0.821830000000     0.998530000000    -0.567735   
O27      O      0.995640000000     0.906420000000     0.818320000000    -0.568325   
O28      O      0.006880000000     0.092280000000     0.823790000000    -0.567731   
O29      O      0.059090000000     0.060080000000     0.934770000000    -1.47163    
O30      O      0.933390000000     0.932380000000     0.928650000000    -1.36596    
O31      O      0.922240000000     0.061850000000     0.921180000000    -1.06313    
O32      O      0.062810000000     0.923300000000     0.921320000000    -1.0508     
O33      O      0.990020000000     0.317150000000     0.407570000000    -0.629456   
O34      O      0.998930000000     0.664770000000     0.398760000000    -0.568147   
O35      O      0.905670000000     0.480720000000     0.318230000000    -0.611923   
O36      O      0.089360000000     0.495350000000     0.324190000000    -0.632983   
O37      O      0.169870000000     0.497370000000     0.406580000000    -0.622816   
O38      O      0.822560000000     0.482560000000     0.396880000000    -0.567095   
O39      O      0.005070000000     0.582020000000     0.318970000000    -0.604868   
O40      O      0.991830000000     0.395950000000     0.324250000000    -0.621148   
O41      O      0.058220000000     0.554870000000     0.431850000000    -1.46302    
O42      O      0.932500000000     0.426880000000     0.431280000000    -1.47499    
O43      O      0.920970000000     0.563780000000     0.425460000000    -1.06208    
O44      O      0.061610000000     0.425860000000     0.431820000000    -1.63552    
O45      O      0.988240000000     0.668740000000     0.583970000000    -0.564415   
O46      O      0.006970000000     0.322800000000     0.593330000000    -0.603789   
O47      O      0.818490000000     0.583180000000     0.488710000000    -0.566088   
O48      O      0.167120000000     0.588040000000     0.493170000000    -0.609896   
O49      O      0.167700000000     0.401030000000     0.502820000000    -0.619636   
O50      O      0.820060000000     0.398040000000     0.489020000000    -0.571732   
O51      O      0.895020000000     0.495660000000     0.666240000000    -0.567439   
O52      O      0.080410000000     0.486100000000     0.671800000000    -0.571023   
O53      O      0.816670000000     0.494360000000     0.582620000000    -0.566721   
O54      O      0.163810000000     0.480540000000     0.593570000000    -0.60201    
O55      O      0.898230000000     0.665490000000     0.488670000000    -0.555965   
O56      O      0.902240000000     0.317710000000     0.494050000000    -0.618497   
O57      O      0.086180000000     0.320540000000     0.502190000000    -0.635548   
O58      O      0.084210000000     0.666890000000     0.490330000000    -0.571716   
O59      O      0.987120000000     0.589450000000     0.667420000000    -0.577444   
O60      O      0.998840000000     0.405740000000     0.671780000000    -0.578035   
O61      O      0.055480000000     0.431930000000     0.560640000000    -1.48762    
O62      O      0.927180000000     0.557030000000     0.555590000000    -1.36664    
O63      O      0.918800000000     0.427520000000     0.568440000000    -1.07361    
O64      O      0.057240000000     0.568080000000     0.568800000000    -1.05989    
O65      O      0.665320000000     0.988970000000     0.398650000000    -0.616502   
O66      O      0.318930000000     0.999130000000     0.404370000000    -0.574443   
O67      O      0.495370000000     0.904850000000     0.317760000000    -0.613134   
O68      O      0.489090000000     0.088510000000     0.322130000000    -0.628413   
O69      O      0.490740000000     0.168380000000     0.405030000000    -0.63296    
O70      O      0.492860000000     0.821970000000     0.397100000000    -0.568677   
O71      O      0.398460000000     0.004810000000     0.321450000000    -0.60697    
O72      O      0.582440000000     0.991950000000     0.319620000000    -0.631519   
O73      O      0.430170000000     0.059380000000     0.432670000000    -1.46845    
O74      O      0.556310000000     0.930800000000     0.428250000000    -1.46002    
O75      O      0.418940000000     0.922040000000     0.428450000000    -1.05609    
O76      O      0.559840000000     0.060080000000     0.428430000000    -1.64017    
O77      O      0.321120000000     0.992200000000     0.589720000000    -0.565484   
O78      O      0.669860000000     0.998780000000     0.585510000000    -0.598414   
O79      O      0.400400000000     0.819370000000     0.494660000000    -0.562663   
O80      O      0.403200000000     0.169930000000     0.491790000000    -0.604256   
O81      O      0.588830000000     0.165550000000     0.499680000000    -0.623851   
O82      O      0.586060000000     0.819500000000     0.484160000000    -0.572189   
O83      O      0.492190000000     0.898000000000     0.667210000000    -0.563779   
O84      O      0.501070000000     0.084440000000     0.669870000000    -0.567303   
O85      O      0.492600000000     0.818100000000     0.584150000000    -0.564559   
O86      O      0.503480000000     0.166180000000     0.589430000000    -0.616904   
O87      O      0.320060000000     0.901760000000     0.497740000000    -0.562443   
O88      O      0.668360000000     0.899890000000     0.484710000000    -0.613013   
O89      O      0.668340000000     0.083010000000     0.496540000000    -0.63153    
O90      O      0.322070000000     0.088420000000     0.495270000000    -0.572356   
O91      O      0.403940000000     0.991580000000     0.669650000000    -0.569323   
O92      O      0.589150000000     0.994350000000     0.666750000000    -0.579283   
O93      O      0.559340000000     0.055750000000     0.557690000000    -1.46529    
O94      O      0.431410000000     0.929600000000     0.557650000000    -1.36932    
O95      O      0.560350000000     0.918220000000     0.565690000000    -1.0629     
O96      O      0.422590000000     0.059080000000     0.569930000000    -1.05977    
O97      O      0.319210000000     0.401860000000     0.997010000000    -0.628158   
O98      O      0.665500000000     0.397890000000     0.998220000000    -0.562996   
O99      O      0.485530000000     0.315880000000     0.905760000000    -0.602778   
O100     O      0.494840000000     0.322080000000     0.091910000000    -0.624941   
O101     O      0.496640000000     0.405440000000     0.170450000000    -0.635706   
O102     O      0.489980000000     0.396310000000     0.823480000000    -0.579819   
O103     O      0.583290000000     0.318620000000     0.006720000000    -0.620858   
O104     O      0.399750000000     0.319690000000     0.995520000000    -0.632273   
O105     O      0.556210000000     0.430610000000     0.059240000000    -1.46751    
O106     O      0.427450000000     0.427820000000     0.934140000000    -1.47572    
O107     O      0.564480000000     0.425150000000     0.922190000000    -1.05042    
O108     O      0.426900000000     0.429030000000     0.063640000000    -1.64341    
O109     O      0.667070000000     0.586370000000     0.987490000000    -0.553458   
O110     O      0.318270000000     0.586560000000     0.000470000000    -0.611691   
O111     O      0.582270000000     0.491190000000     0.819540000000    -0.564328   
O112     O      0.587790000000     0.486530000000     0.168300000000    -0.6063     
O113     O      0.402070000000     0.503210000000     0.169850000000    -0.615643   
O114     O      0.395240000000     0.479020000000     0.823490000000    -0.561271   
O115     O      0.493550000000     0.664480000000     0.897320000000    -0.560759   
O116     O      0.489220000000     0.668550000000     0.084570000000    -0.565986   
O117     O      0.490580000000     0.581140000000     0.818600000000    -0.570169   
O118     O      0.490650000000     0.589030000000     0.167910000000    -0.621458   
O119     O      0.665230000000     0.494070000000     0.899440000000    -0.566799   
O120     O      0.315560000000     0.478570000000     0.906450000000    -0.607251   
O121     O      0.320880000000     0.500620000000     0.089000000000    -0.629134   
O122     O      0.667610000000     0.487580000000     0.085380000000    -0.5761     
O123     O      0.585380000000     0.666700000000     0.987180000000    -0.564036   
O124     O      0.400410000000     0.667150000000     0.999110000000    -0.574386   
O125     O      0.429920000000     0.557820000000     0.058150000000    -1.47001    
O126     O      0.554620000000     0.554300000000     0.929300000000    -1.37086    
O127     O      0.425270000000     0.564960000000     0.920360000000    -1.06685    
O128     O      0.567310000000     0.567680000000     0.058210000000    -1.05424    
S1       S      0.484820000000     0.390740000000     0.300060000000    -0.0279736  
S2       S      0.441550000000     0.884940000000     0.197650000000    -0.0218221  
S3       S      0.518940000000     0.597540000000     0.691040000000    -0.0198167  
S4       S      0.552530000000     0.286650000000     0.613180000000    -0.0156041  
S5       S      0.792860000000     0.101380000000     0.535890000000    -0.0200209  
S6       S      0.694850000000     0.600950000000     0.447020000000    -0.0237326  
S7       S      0.103830000000     0.193170000000     0.526250000000    -0.0158361  
S8       S      0.098510000000     0.796520000000     0.495880000000    -0.0183518  
S9       S      0.889520000000     0.461780000000     0.189100000000    -0.0181882  
S10      S      0.196300000000     0.538010000000     0.107730000000    -0.0193301  
S11      S      0.092420000000     0.466040000000     0.801940000000    -0.0189658  
S12      S      0.690370000000     0.461850000000     0.599540000000    -0.0197685  
S13      S      0.602820000000     0.792570000000     0.954090000000    -0.0186679  
S14      S      0.599370000000     0.190520000000     0.985380000000    -0.0210289  
S15      S      0.291530000000     0.882990000000     0.051910000000    -0.013787   
S16      S      0.100070000000     0.295720000000     0.025330000000    -0.0269759  
S17      S      0.608170000000     0.039050000000     0.789370000000    -0.0163067  
S18      S      0.299590000000     0.024650000000     0.889740000000    -0.0217686  
S19      S      0.099570000000     0.965540000000     0.298480000000    -0.018077   
S20      S      0.598480000000     0.971440000000     0.190930000000    -0.0178706  
S21      S      0.021300000000     0.394840000000     0.800850000000    -0.00538957 
S22      S      0.015870000000     0.889850000000     0.689500000000    -0.0185403  
S23      S      0.035330000000     0.691760000000     0.098690000000    -0.0181027  
S24      S      0.951790000000     0.191820000000     0.390070000000    -0.0240859  


