data_structure

_audit_creation_method RASPA-1.0
_audit_creation_date 2023-5-19
_audit_author_name 'Poobodin Mano'

_cell_length_a    20.658
_cell_length_b    20.5966
_cell_length_c    20.6086
_cell_angle_alpha 90
_cell_angle_beta  90
_cell_angle_gamma 90
_cell_volume      8768.64

_symmetry_cell_setting          triclinic
_symmetry_space_group_name_Hall 'P 1'
_symmetry_space_group_name_H-M  'P 1'
_symmetry_Int_Tables_number     1

_symmetry_equiv_pos_as_xyz 'x,y,z'

loop_
_atom_site_label
_atom_site_type_symbol
_atom_site_fract_x
_atom_site_fract_y
_atom_site_fract_z
_atom_site_charge
C1       C      0.005760000000     0.153760000000     0.147890000000     0.5027     
C2       C      0.023510000000     0.843180000000     0.154870000000     0.508492   
C3       C      0.850580000000     0.008270000000     0.162180000000     0.508423   
C4       C      0.158280000000     0.994740000000     0.144070000000     0.510488   
C5       C      0.981740000000     0.836480000000     0.846040000000     0.498493   
C6       C      0.001660000000     0.145810000000     0.837560000000     0.510145   
C7       C      0.839100000000     0.840820000000     0.013100000000     0.496415   
C8       C      0.149800000000     0.837980000000     0.007500000000     0.515358   
C9       C      0.151290000000     0.150810000000     0.977620000000     0.499901   
C10      C      0.843600000000     0.153630000000     0.005570000000     0.501673   
C11      C      0.831450000000     0.989610000000     0.851620000000     0.495614   
C12      C      0.142660000000     0.990120000000     0.832890000000     0.515129   
C13      C      0.989650000000     0.345630000000     0.332900000000     0.509895   
C14      C      0.004650000000     0.656300000000     0.340750000000     0.502481   
C15      C      0.841480000000     0.484020000000     0.337900000000     0.510826   
C16      C      0.152870000000     0.512470000000     0.337920000000     0.506079   
C17      C      0.990830000000     0.646300000000     0.652510000000     0.499189   
C18      C      0.006080000000     0.336510000000     0.643980000000     0.510217   
C19      C      0.844120000000     0.652890000000     0.492080000000     0.497262   
C20      C      0.154120000000     0.650260000000     0.496520000000     0.511384   
C21      C      0.152830000000     0.341300000000     0.494290000000     0.504821   
C22      C      0.842680000000     0.338820000000     0.483260000000     0.507898   
C23      C      0.842050000000     0.506010000000     0.647510000000     0.501305   
C24      C      0.154850000000     0.475770000000     0.645730000000     0.510661   
C25      C      0.657880000000     0.002480000000     0.351760000000     0.502341   
C26      C      0.349430000000     0.002510000000     0.336750000000     0.511341   
C27      C      0.508210000000     0.844020000000     0.344340000000     0.50274    
C28      C      0.492560000000     0.154300000000     0.343580000000     0.501391   
C29      C      0.335540000000     0.000560000000     0.647970000000     0.502778   
C30      C      0.647160000000     0.014720000000     0.659970000000     0.502075   
C31      C      0.346030000000     0.839830000000     0.500780000000     0.503992   
C32      C      0.338930000000     0.151760000000     0.477110000000     0.510462   
C33      C      0.650250000000     0.155430000000     0.512470000000     0.498501   
C34      C      0.651940000000     0.843240000000     0.497540000000     0.504954   
C35      C      0.482400000000     0.849420000000     0.660340000000     0.490398   
C36      C      0.484030000000     0.156690000000     0.654090000000     0.51798    
C37      C      0.344320000000     0.340850000000     0.991050000000     0.49252    
C38      C      0.652260000000     0.341540000000     0.014080000000     0.510104   
C39      C      0.500840000000     0.339800000000     0.840650000000     0.51242    
C40      C      0.504450000000     0.346850000000     0.152700000000     0.502474   
C41      C      0.653030000000     0.654950000000     0.983270000000     0.492082   
C42      C      0.342360000000     0.653400000000     0.993090000000     0.506134   
C43      C      0.654200000000     0.494450000000     0.837380000000     0.493708   
C44      C      0.653900000000     0.499290000000     0.148590000000     0.508528   
C45      C      0.342830000000     0.503540000000     0.147250000000     0.497524   
C46      C      0.342040000000     0.487580000000     0.837740000000     0.501157   
C47      C      0.502290000000     0.649580000000     0.832050000000     0.483273   
C48      C      0.491240000000     0.655420000000     0.147460000000     0.506517   
C49      C      0.478350000000     0.185330000000     0.227770000000    -0.00419277 
C50      C      0.476140000000     0.269810000000     0.314430000000    -0.0130094  
C51      C      0.516810000000     0.231700000000     0.183980000000    -0.00695819 
C52      C      0.517050000000     0.315460000000     0.272210000000     0.0301675  
C53      C      0.478490000000     0.733150000000     0.311730000000    -0.00529588 
C54      C      0.525090000000     0.812840000000     0.229490000000    -0.0135758  
C55      C      0.500540000000     0.681540000000     0.263350000000     0.00241441 
C56      C      0.488580000000     0.771600000000     0.179140000000     0.0389364  
C57      C      0.545640000000     0.754140000000     0.792100000000    -0.00813842 
C58      C      0.469240000000     0.687380000000     0.722140000000    -0.016095   
C59      C      0.509510000000     0.816330000000     0.772050000000    -0.000782748
C60      C      0.430820000000     0.750080000000     0.710690000000     0.0319553  
C61      C      0.520590000000     0.308160000000     0.726180000000    -0.00261547 
C62      C      0.505160000000     0.223260000000     0.812290000000    -0.0116164  
C63      C      0.472400000000     0.272510000000     0.682690000000    -0.00185107 
C64      C      0.454530000000     0.190660000000     0.769630000000     0.0339642  
C65      C      0.683300000000     0.271570000000     0.522170000000    -0.00490483 
C66      C      0.766450000000     0.183730000000     0.524390000000    -0.0149169  
C67      C      0.726250000000     0.310590000000     0.475320000000    -0.00584397 
C68      C      0.806640000000     0.220000000000     0.473590000000     0.0339381  
C69      C      0.815350000000     0.768780000000     0.479400000000    -0.00232105 
C70      C      0.733280000000     0.682370000000     0.460870000000    -0.0131351  
C71      C      0.764990000000     0.811310000000     0.512870000000    -0.00389462 
C72      C      0.679870000000     0.724840000000     0.490350000000     0.0333263  
C73      C      0.269150000000     0.310360000000     0.499930000000    -0.00417338 
C74      C      0.182380000000     0.225390000000     0.506490000000    -0.0140798  
C75      C      0.308140000000     0.265880000000     0.454770000000    -0.00407185 
C76      C      0.220250000000     0.183490000000     0.458460000000     0.033231   
C77      C      0.184630000000     0.764170000000     0.515470000000    -0.000906803
C78      C      0.265850000000     0.675220000000     0.527570000000    -0.00959424 
C79      C      0.234300000000     0.806880000000     0.482520000000    -0.00401552 
C80      C      0.320930000000     0.721250000000     0.506660000000     0.0301413  
C81      C      0.769370000000     0.511400000000     0.179980000000    -0.00330063 
C82      C      0.682470000000     0.507920000000     0.264800000000    -0.0116561  
C83      C      0.811910000000     0.467960000000     0.222690000000    -0.00389751 
C84      C      0.723870000000     0.461610000000     0.305090000000     0.0327334  
C85      C      0.227410000000     0.490050000000     0.178660000000    -0.00412897 
C86      C      0.314070000000     0.499000000000     0.263790000000    -0.0131099  
C87      C      0.181700000000     0.529460000000     0.222390000000    -0.00581836 
C88      C      0.268910000000     0.541600000000     0.304420000000     0.0308116  
C89      C      0.226210000000     0.493930000000     0.806010000000    -0.00218708 
C90      C      0.313870000000     0.495290000000     0.721480000000    -0.0136354  
C91      C      0.184040000000     0.453180000000     0.760150000000    -0.00599798 
C92      C      0.272320000000     0.451770000000     0.678140000000     0.0328277  
C93      C      0.769370000000     0.479160000000     0.805610000000    -0.00441984 
C94      C      0.682530000000     0.487320000000     0.720790000000    -0.0140834  
C95      C      0.813570000000     0.521470000000     0.763260000000    -0.00450293 
C96      C      0.725780000000     0.532950000000     0.681560000000     0.0331493  
C97      C      0.768480000000     0.687490000000     0.969630000000    -0.00518885 
C98      C      0.681960000000     0.772050000000     0.980930000000    -0.0148497  
C99      C      0.809860000000     0.724170000000     0.019550000000    -0.00402561 
C100     C      0.721970000000     0.805140000000     0.033940000000     0.0340016  
C101     C      0.812610000000     0.269940000000     0.996970000000    -0.00439508 
C102     C      0.727960000000     0.182330000000     0.997070000000    -0.0156298  
C103     C      0.766720000000     0.313200000000     0.036680000000    -0.00472044 
C104     C      0.685160000000     0.224460000000     0.040340000000     0.0345558  
C105     C      0.309910000000     0.769310000000     0.986120000000    -0.00450759 
C106     C      0.226790000000     0.680860000000     0.979270000000    -0.0122189  
C107     C      0.263800000000     0.808470000000     0.029210000000    -0.00287457 
C108     C      0.182410000000     0.719220000000     0.024440000000     0.0337202  
C109     C      0.312930000000     0.224210000000     0.999240000000    -0.00536746 
C110     C      0.228530000000     0.311460000000     0.001080000000    -0.0123161  
C111     C      0.266440000000     0.180680000000     0.960040000000    -0.00681374 
C112     C      0.184530000000     0.269410000000     0.958420000000     0.0303661  
C113     C      0.761850000000     0.025910000000     0.694430000000    -0.000748394
C114     C      0.673370000000     0.032700000000     0.776350000000    -0.0132215  
C115     C      0.797880000000     0.977560000000     0.737340000000    -0.00583736 
C116     C      0.710860000000     0.986570000000     0.821580000000     0.0304445  
C117     C      0.301430000000     0.009210000000     0.762550000000    -0.000970943
C118     C      0.219760000000     0.018450000000     0.673010000000    -0.012422   
C119     C      0.254660000000     0.966670000000     0.800280000000    -0.00199066 
C120     C      0.171660000000     0.978030000000     0.712900000000     0.0326561  
C121     C      0.322230000000     0.986010000000     0.221550000000    -0.00554428 
C122     C      0.237820000000     0.025580000000     0.302820000000    -0.0163182  
C123     C      0.273560000000     0.010310000000     0.171000000000     0.00184133 
C124     C      0.188190000000     0.992470000000     0.259200000000     0.0412649  
C125     C      0.690030000000     0.027980000000     0.239680000000     5.4888e-05 
C126     C      0.771240000000     0.031150000000     0.328950000000    -0.0122603  
C127     C      0.738010000000     0.995470000000     0.194920000000    -0.00507334 
C128     C      0.825490000000     0.011550000000     0.281040000000     0.0347207  
C129     C      0.000360000000     0.307470000000     0.759080000000    -0.000873247
C130     C      0.025670000000     0.221660000000     0.673550000000    -0.0118894  
C131     C      0.028540000000     0.257510000000     0.805510000000    -0.000408002
C132     C      0.994310000000     0.173600000000     0.721090000000     0.0363886  
C133     C      0.984920000000     0.808040000000     0.730670000000    -0.00232367 
C134     C      0.964110000000     0.721270000000     0.816490000000    -0.0153702  
C135     C      0.958670000000     0.756610000000     0.684620000000    -0.00222271 
C136     C      0.996850000000     0.674210000000     0.768890000000     0.0405984  
C137     C      0.991120000000     0.691120000000     0.226550000000    -0.00399924 
C138     C      0.015610000000     0.773540000000     0.314040000000    -0.0130823  
C139     C      0.037750000000     0.726860000000     0.181450000000    -0.00245185 
C140     C      0.063260000000     0.806400000000     0.267200000000     0.0299879  
C141     C      0.023720000000     0.188470000000     0.261990000000    -0.00193987 
C142     C      0.018730000000     0.270710000000     0.173250000000    -0.0122436  
C143     C      0.978170000000     0.230110000000     0.303000000000    -0.00541296 
C144     C      0.972990000000     0.312560000000     0.214130000000     0.0315763  
Eu1      Eu     0.001830000000     0.996850000000     0.112150000000     3.50131    
Eu2      Eu     0.994830000000     0.879640000000     0.000600000000     3.08251    
Eu3      Eu     0.996680000000     0.109780000000     0.993490000000     3.48306    
Eu4      Eu     0.881320000000     0.996380000000     0.004440000000     3.00381    
Eu5      Eu     0.111340000000     0.993420000000     0.990180000000     3.52792    
Eu6      Eu     0.989910000000     0.992130000000     0.882430000000     3.04453    
Eu7      Eu     0.996720000000     0.499990000000     0.377220000000     3.43984    
Eu8      Eu     0.998200000000     0.611430000000     0.495270000000     3.04182    
Eu9      Eu     0.997000000000     0.380980000000     0.490460000000     3.50265    
Eu10     Eu     0.882820000000     0.495740000000     0.492560000000     3.10024    
Eu11     Eu     0.112040000000     0.496500000000     0.493020000000     3.5439     
Eu12     Eu     0.998010000000     0.492920000000     0.608370000000     3.07436    
Eu13     Eu     0.501070000000     0.997740000000     0.384920000000     3.54049    
Eu14     Eu     0.381940000000     0.997890000000     0.494600000000     3.093      
Eu15     Eu     0.611320000000     0.999420000000     0.505270000000     3.39369    
Eu16     Eu     0.497720000000     0.883940000000     0.501640000000     3.02683    
Eu17     Eu     0.494350000000     0.115120000000     0.499310000000     3.5012     
Eu18     Eu     0.492690000000     0.001700000000     0.614870000000     3.0831     
Eu19     Eu     0.499380000000     0.383020000000     0.994970000000     3.47575    
Eu20     Eu     0.614180000000     0.498370000000     0.993100000000     3.05194    
Eu21     Eu     0.383550000000     0.498200000000     0.991630000000     3.45802    
Eu22     Eu     0.498440000000     0.495470000000     0.877530000000     3.03499    
Eu23     Eu     0.499050000000     0.501620000000     0.107280000000     3.54492    
Eu24     Eu     0.498030000000     0.614260000000     0.990280000000     3.01878    
H1       H      0.942380000000     0.937040000000     0.110570000000    -0.166991   
H2       H      0.096610000000     0.090860000000     0.082800000000     0.414583   
H3       H      0.934810000000     0.101400000000     0.937640000000    -0.180642   
H4       H      0.099200000000     0.931760000000     0.934880000000    -0.19027    
H5       H      0.936850000000     0.558540000000     0.386030000000    -0.156413   
H6       H      0.091870000000     0.404610000000     0.394910000000     0.408778   
H7       H      0.938450000000     0.387520000000     0.549700000000    -0.189852   
H8       H      0.104520000000     0.552390000000     0.554770000000    -0.192931   
H9       H      0.442950000000     0.939030000000     0.391720000000    -0.207662   
H10      H      0.592580000000     0.095490000000     0.409420000000     0.409908   
H11      H      0.602330000000     0.940820000000     0.565180000000    -0.160885   
H12      H      0.431930000000     0.106690000000     0.553960000000    -0.181476   
H13      H      0.559820000000     0.389840000000     0.937690000000    -0.180032   
H14      H      0.404750000000     0.405280000000     0.088980000000     0.41383    
H15      H      0.391840000000     0.555730000000     0.931760000000    -0.186364   
H16      H      0.557070000000     0.560650000000     0.097880000000    -0.198752   
H17      H      0.569070000000     0.219580000000     0.188640000000     0.0325348  
H18      H      0.493260000000     0.134710000000     0.216560000000     0.0348129  
H19      H      0.568640000000     0.305820000000     0.284300000000     0.0265149  
H20      H      0.487240000000     0.279670000000     0.366290000000     0.0395447  
H21      H      0.502320000000     0.221080000000     0.133230000000     0.0375164  
H22      H      0.426140000000     0.189950000000     0.215400000000     0.0304123  
H23      H      0.424040000000     0.281250000000     0.306700000000     0.0330218  
H24      H      0.435350000000     0.409470000000     0.293850000000     0.0220636  
H25      H      0.552730000000     0.671060000000     0.271520000000     0.034522   
H26      H      0.491580000000     0.716870000000     0.361360000000     0.0383751  
H27      H      0.510870000000     0.781110000000     0.130950000000     0.0276761  
H28      H      0.577740000000     0.802850000000     0.224440000000     0.0374781  
H29      H      0.473450000000     0.636090000000     0.274020000000     0.038033   
H30      H      0.424790000000     0.736570000000     0.310440000000     0.0390433  
H31      H      0.518460000000     0.865090000000     0.217660000000     0.0424357  
H32      H      0.397350000000     0.835410000000     0.120650000000     0.0249666  
H33      H      0.473590000000     0.828340000000     0.810430000000     0.0343954  
H34      H      0.564030000000     0.759630000000     0.842520000000     0.0395191  
H35      H      0.400710000000     0.754950000000     0.755320000000     0.029161   
H36      H      0.435610000000     0.645210000000     0.724010000000     0.039601   
H37      H      0.544940000000     0.856940000000     0.769240000000     0.0363868  
H38      H      0.588710000000     0.749400000000     0.760090000000     0.0350945  
H39      H      0.503900000000     0.680340000000     0.681480000000     0.0421162  
H40      H      0.312680000000     0.727280000000     0.673810000000     0.022514   
H41      H      0.423550000000     0.293760000000     0.690820000000     0.0333026  
H42      H      0.518140000000     0.360940000000     0.715400000000     0.0391871  
H43      H      0.407600000000     0.215230000000     0.779820000000     0.028513   
H44      H      0.493010000000     0.215020000000     0.864190000000     0.0423723  
H45      H      0.485660000000     0.281800000000     0.631310000000     0.0369868  
H46      H      0.570140000000     0.291320000000     0.713420000000     0.0352621  
H47      H      0.553120000000     0.200630000000     0.802610000000     0.0395922  
H48      H      0.397890000000     0.105960000000     0.843860000000     0.0175244  
H49      H      0.709100000000     0.301170000000     0.425040000000     0.0302091  
H50      H      0.631720000000     0.282660000000     0.511650000000     0.034575   
H51      H      0.788340000000     0.204570000000     0.425180000000     0.0233827  
H52      H      0.774850000000     0.130680000000     0.519310000000     0.0423655  
H53      H      0.717970000000     0.362770000000     0.485550000000     0.0405901  
H54      H      0.693660000000     0.288370000000     0.572400000000     0.0356578  
H55      H      0.783630000000     0.198180000000     0.573500000000     0.0404751  
H56      H      0.903640000000     0.156690000000     0.423720000000     0.0199247  
H57      H      0.769610000000     0.804310000000     0.566190000000     0.032549   
H58      H      0.863370000000     0.779370000000     0.501330000000     0.0378595  
H59      H      0.670850000000     0.707610000000     0.540670000000     0.0275145  
H60      H      0.721010000000     0.630710000000     0.470620000000     0.0430576  
H61      H      0.777410000000     0.862780000000     0.502500000000     0.0377958  
H62      H      0.817540000000     0.782530000000     0.427240000000     0.0360099  
H63      H      0.733580000000     0.688590000000     0.407170000000     0.0391849  
H64      H      0.558920000000     0.689200000000     0.483280000000     0.0242881  
H65      H      0.296070000000     0.279070000000     0.403840000000     0.0279329  
H66      H      0.278940000000     0.361490000000     0.485890000000     0.0365014  
H67      H      0.205420000000     0.199040000000     0.408910000000     0.0215284  
H68      H      0.129720000000     0.216170000000     0.500300000000     0.041118   
H69      H      0.360400000000     0.276430000000     0.461700000000     0.0378286  
H70      H      0.286990000000     0.303290000000     0.550350000000     0.0354628  
H71      H      0.195640000000     0.210470000000     0.556670000000     0.0400686  
H72      H      0.145440000000     0.088690000000     0.422050000000     0.0162377  
H73      H      0.230560000000     0.799700000000     0.429150000000     0.0346791  
H74      H      0.136150000000     0.776630000000     0.495600000000     0.0369193  
H75      H      0.336810000000     0.706630000000     0.457210000000     0.0293668  
H76      H      0.278440000000     0.625710000000     0.510270000000     0.0413675  
H77      H      0.220960000000     0.858150000000     0.492780000000     0.0376251  
H78      H      0.184540000000     0.775090000000     0.568350000000     0.0350141  
H79      H      0.263710000000     0.672080000000     0.581390000000     0.0341075  
H80      H      0.396540000000     0.640250000000     0.570330000000     0.0159515  
H81      H      0.804720000000     0.416710000000     0.207250000000     0.0341631  
H82      H      0.780310000000     0.500530000000     0.128320000000     0.0373942  
H83      H      0.712730000000     0.411520000000     0.288170000000     0.028776   
H84      H      0.630500000000     0.497010000000     0.273580000000     0.0438057  
H85      H      0.863130000000     0.480700000000     0.212760000000     0.0387727  
H86      H      0.783010000000     0.562830000000     0.189120000000     0.0335791  
H87      H      0.691630000000     0.558500000000     0.281450000000     0.037783   
H88      H      0.645950000000     0.423080000000     0.396310000000     0.0181182  
H89      H      0.184910000000     0.581340000000     0.207720000000     0.0355593  
H90      H      0.216080000000     0.501780000000     0.127270000000     0.0360604  
H91      H      0.276040000000     0.592410000000     0.287460000000     0.0305314  
H92      H      0.364810000000     0.514990000000     0.272200000000     0.0404713  
H93      H      0.131420000000     0.513180000000     0.212380000000     0.0362385  
H94      H      0.216840000000     0.437620000000     0.185990000000     0.024131   
H95      H      0.309810000000     0.447870000000     0.280700000000     0.0290694  
H96      H      0.335050000000     0.593360000000     0.398500000000     0.0201711  
H97      H      0.191610000000     0.401100000000     0.772280000000     0.034258   
H98      H      0.215470000000     0.479050000000     0.856720000000     0.0375662  
H99      H      0.283140000000     0.400650000000     0.691910000000     0.0285489  
H100     H      0.365700000000     0.483630000000     0.712750000000     0.042127   
H101     H      0.132510000000     0.464420000000     0.770600000000     0.0374285  
H102     H      0.211920000000     0.545730000000     0.800820000000     0.0323487  
H103     H      0.306080000000     0.546820000000     0.707170000000     0.0367975  
H104     H      0.348650000000     0.417010000000     0.583960000000     0.0172396  
H105     H      0.808270000000     0.572750000000     0.779370000000     0.033441   
H106     H      0.780640000000     0.489020000000     0.857400000000     0.0375728  
H107     H      0.716810000000     0.582780000000     0.700480000000     0.0285158  
H108     H      0.631050000000     0.500580000000     0.712290000000     0.0438478  
H109     H      0.864450000000     0.507000000000     0.772890000000     0.0384538  
H110     H      0.781220000000     0.427380000000     0.795960000000     0.0354876  
H111     H      0.689690000000     0.436850000000     0.702920000000     0.0399611  
H112     H      0.668560000000     0.592150000000     0.585790000000     0.0224352  
H113     H      0.800520000000     0.702600000000     0.068150000000     0.0341159  
H114     H      0.779120000000     0.634760000000     0.973330000000     0.0378023  
H115     H      0.709570000000     0.780130000000     0.080200000000     0.0284619  
H116     H      0.629640000000     0.780310000000     0.990370000000     0.0421568  
H117     H      0.861610000000     0.715380000000     0.007950000000     0.0385067  
H118     H      0.783460000000     0.703650000000     0.920380000000     0.0340221  
H119     H      0.693910000000     0.794860000000     0.933460000000     0.0391208  
H120     H      0.660400000000     0.892560000000     0.101000000000     0.0199368  
H121     H      0.778980000000     0.307030000000     0.088890000000     0.033767   
H122     H      0.863180000000     0.280670000000     0.011950000000     0.0382889  
H123     H      0.699450000000     0.214550000000     0.091460000000     0.0275932  
H124     H      0.718960000000     0.130480000000     0.009090000000     0.0447645  
H125     H      0.776910000000     0.364610000000     0.024090000000     0.0382823  
H126     H      0.807770000000     0.283350000000     0.944930000000     0.0346721  
H127     H      0.713550000000     0.189840000000     0.945570000000     0.040335   
H128     H      0.592770000000     0.146250000000     0.075490000000     0.01647    
H129     H      0.275650000000     0.797500000000     0.080710000000     0.0360505  
H130     H      0.360450000000     0.780180000000     0.001080000000     0.0381278  
H131     H      0.195090000000     0.705260000000     0.075040000000     0.0293385  
H132     H      0.218180000000     0.628110000000     0.986710000000     0.0420058  
H133     H      0.273940000000     0.860850000000     0.021560000000     0.0385438  
H134     H      0.303810000000     0.785880000000     0.935120000000     0.0340744  
H135     H      0.213610000000     0.692320000000     0.928160000000     0.0383272  
H136     H      0.087570000000     0.641300000000     0.053150000000     0.0175007  
H137     H      0.278460000000     0.186280000000     0.907720000000     0.0349908  
H138     H      0.363310000000     0.213520000000     0.983580000000     0.0360987  
H139     H      0.197120000000     0.280310000000     0.907060000000     0.02918    
H140     H      0.219330000000     0.363400000000     0.989610000000     0.0395517  
H141     H      0.276640000000     0.129400000000     0.973200000000     0.0349707  
H142     H      0.308910000000     0.210620000000     0.051300000000     0.0255531  
H143     H      0.215200000000     0.303640000000     0.052820000000     0.0288757  
H144     H      0.089780000000     0.345720000000     0.925550000000     0.0173826  
H145     H      0.782620000000     0.927740000000     0.723160000000     0.0337022  
H146     H      0.773780000000     0.015680000000     0.642880000000     0.0376286  
H147     H      0.693140000000     0.936550000000     0.811640000000     0.0273889  
H148     H      0.620550000000     0.026150000000     0.784360000000     0.0434701  
H149     H      0.850300000000     0.981630000000     0.726190000000     0.0391129  
H150     H      0.779640000000     0.075560000000     0.705930000000     0.0361425  
H151     H      0.685480000000     0.083630000000     0.789750000000     0.0395426  
H152     H      0.637490000000     0.965690000000     0.921880000000     0.0202188  
H153     H      0.264000000000     0.915180000000     0.786840000000     0.0336997  
H154     H      0.351440000000     0.993370000000     0.774450000000     0.039143   
H155     H      0.178180000000     0.926560000000     0.697890000000     0.027709   
H156     H      0.211410000000     0.008650000000     0.620610000000     0.0438054  
H157     H      0.266280000000     0.971530000000     0.852640000000     0.0367476  
H158     H      0.295450000000     0.060280000000     0.779030000000     0.035713   
H159     H      0.209710000000     0.070880000000     0.681430000000     0.0394174  
H160     H      0.052580000000     0.947910000000     0.684720000000     0.02676    
H161     H      0.279540000000     0.063640000000     0.165180000000     0.0249983  
H162     H      0.370990000000     0.004860000000     0.208610000000     0.0378719  
H163     H      0.141480000000     0.017630000000     0.268730000000     0.0264204  
H164     H      0.234840000000     0.078910000000     0.294900000000     0.033156   
H165     H      0.285440000000     0.987650000000     0.123490000000     0.033663   
H166     H      0.324980000000     0.932170000000     0.218820000000     0.0374552  
H167     H      0.224090000000     0.016950000000     0.354160000000     0.0424106  
H168     H      0.210320000000     0.892550000000     0.336610000000     0.0289178  
H169     H      0.731740000000     0.941950000000     0.198570000000     0.0366069  
H170     H      0.640680000000     0.011710000000     0.225630000000     0.0354687  
H171     H      0.840830000000     0.961270000000     0.293330000000     0.0267811  
H172     H      0.783030000000     0.009600000000     0.377030000000     0.04037    
H173     H      0.724840000000     0.009910000000     0.144650000000     0.0402308  
H174     H      0.692670000000     0.081430000000     0.232230000000     0.027802   
H175     H      0.771080000000     0.084810000000     0.335800000000     0.0297072  
H176     H      0.946160000000     0.027790000000     0.314260000000     0.022882   
H177     H      0.082280000000     0.259300000000     0.802790000000     0.0350481  
H178     H      0.022840000000     0.355250000000     0.770380000000     0.0361068  
H179     H      0.014000000000     0.124550000000     0.710510000000     0.0318588  
H180     H      0.079080000000     0.215280000000     0.675710000000     0.0374343  
H181     H      0.014420000000     0.271940000000     0.855450000000     0.0391048  
H182     H      0.947520000000     0.312320000000     0.768210000000     0.0369605  
H183     H      0.010770000000     0.209420000000     0.623150000000     0.041953   
H184     H      0.894980000000     0.119940000000     0.665960000000     0.025011   
H185     H      0.905000000000     0.755480000000     0.688610000000     0.0338233  
H186     H      0.959670000000     0.854540000000     0.719970000000     0.0362787  
H187     H      0.978290000000     0.624700000000     0.779850000000     0.0279015  
H188     H      0.910930000000     0.713210000000     0.814320000000     0.0353932  
H189     H      0.970530000000     0.771620000000     0.634200000000     0.0382624  
H190     H      0.037220000000     0.815850000000     0.720540000000     0.0390035  
H191     H      0.979320000000     0.709460000000     0.866890000000     0.042552   
H192     H      0.107110000000     0.614310000000     0.763540000000     0.0350134  
H193     H      0.086650000000     0.704830000000     0.186840000000     0.0343072  
H194     H      0.992680000000     0.638540000000     0.214660000000     0.0370998  
H195     H      0.109870000000     0.779920000000     0.273290000000     0.0308258  
H196     H      0.034330000000     0.778330000000     0.364410000000     0.0414527  
H197     H      0.021830000000     0.718050000000     0.130840000000     0.0402072  
H198     H      0.941210000000     0.708490000000     0.216150000000     0.0341238  
H199     H      0.968270000000     0.799130000000     0.311320000000     0.0376744  
H200     H      0.060140000000     0.901430000000     0.353650000000     0.0148283  
H201     H      0.927680000000     0.213640000000     0.294080000000     0.0370591  
H202     H      0.016510000000     0.136590000000     0.274540000000     0.0352076  
H203     H      0.922760000000     0.297170000000     0.202110000000     0.0294667  
H204     H      0.007830000000     0.278460000000     0.121000000000     0.0412701  
H205     H      0.989250000000     0.220300000000     0.354780000000     0.0364701  
H206     H      0.074380000000     0.201310000000     0.274990000000     0.0239992  
H207     H      0.069320000000     0.287170000000     0.181880000000     0.02912    
H208     H      0.935460000000     0.406590000000     0.138880000000     0.0182729  
N1       N      0.507670000000     0.300910000000     0.201690000000    -0.191068   
N2       N      0.486990000000     0.201470000000     0.296730000000    -0.189069   
N3       N      0.491480000000     0.701850000000     0.195140000000    -0.191016   
N4       N      0.505890000000     0.797480000000     0.296910000000    -0.183611   
N5       N      0.475560000000     0.805840000000     0.710060000000    -0.187004   
N6       N      0.505360000000     0.695240000000     0.783820000000    -0.180838   
N7       N      0.471200000000     0.202970000000     0.700240000000    -0.19156    
N8       N      0.507920000000     0.292470000000     0.794920000000    -0.188023   
N9       N      0.795370000000     0.291430000000     0.479920000000    -0.188284   
N10      N      0.697740000000     0.201730000000     0.517940000000    -0.188028   
N11      N      0.697970000000     0.795030000000     0.493610000000    -0.188361   
N12      N      0.797830000000     0.699870000000     0.484560000000    -0.184202   
N13      N      0.291000000000     0.196970000000     0.465570000000    -0.189596   
N14      N      0.199580000000     0.294200000000     0.497750000000    -0.189192   
N15      N      0.300890000000     0.791010000000     0.503190000000    -0.187548   
N16      N      0.201360000000     0.695800000000     0.505630000000    -0.187756   
N17      N      0.793950000000     0.474160000000     0.291920000000    -0.188962   
N18      N      0.700300000000     0.502920000000     0.195880000000    -0.186799   
N19      N      0.199990000000     0.523760000000     0.291600000000    -0.190906   
N20      N      0.296090000000     0.501800000000     0.194650000000    -0.189202   
N21      N      0.202230000000     0.463810000000     0.691500000000    -0.188855   
N22      N      0.295590000000     0.487750000000     0.790140000000    -0.185402   
N23      N      0.795190000000     0.516880000000     0.693980000000    -0.187396   
N24      N      0.700520000000     0.490070000000     0.789920000000    -0.183405   
N25      N      0.792110000000     0.793860000000     0.021060000000    -0.186662   
N26      N      0.699210000000     0.702580000000     0.978520000000    -0.183469   
N27      N      0.698210000000     0.294520000000     0.026810000000    -0.188654   
N28      N      0.796500000000     0.200540000000     0.004310000000    -0.184293   
N29      N      0.195560000000     0.790200000000     0.016970000000    -0.189552   
N30      N      0.294770000000     0.699510000000     0.989740000000    -0.186383   
N31      N      0.197710000000     0.198840000000     0.969770000000    -0.189864   
N32      N      0.297020000000     0.293750000000     0.992540000000    -0.188046   
N33      N      0.781850000000     0.987900000000     0.806680000000    -0.185499   
N34      N      0.692120000000     0.022480000000     0.708260000000    -0.185534   
N35      N      0.186990000000     0.983070000000     0.783550000000    -0.19057    
N36      N      0.287020000000     0.005390000000     0.692810000000    -0.185293   
N37      N      0.206040000000     0.996900000000     0.189930000000    -0.196807   
N38      N      0.304360000000     0.004550000000     0.288310000000    -0.186049   
N39      N      0.805690000000     0.011880000000     0.211430000000    -0.188554   
N40      N      0.705990000000     0.012910000000     0.307270000000    -0.190465   
N41      N      0.006880000000     0.191260000000     0.789450000000    -0.190773   
N42      N      0.010410000000     0.289510000000     0.690570000000    -0.186193   
N43      N      0.984090000000     0.691670000000     0.700480000000    -0.190153   
N44      N      0.977170000000     0.789540000000     0.799390000000    -0.183445   
N45      N      0.040560000000     0.796250000000     0.199470000000    -0.187495   
N46      N      0.006150000000     0.704830000000     0.295270000000    -0.185118   
N47      N      0.983570000000     0.299510000000     0.284770000000    -0.192526   
N48      N      0.013400000000     0.202190000000     0.192730000000    -0.191203   
O1       O      0.001380000000     0.171120000000     0.085010000000    -0.632249   
O2       O      0.011270000000     0.823190000000     0.093880000000    -0.574784   
O3       O      0.913830000000     0.005310000000     0.177700000000    -0.621689   
O4       O      0.096900000000     0.993750000000     0.165690000000    -0.636537   
O5       O      0.175240000000     0.995540000000     0.080790000000    -0.633669   
O6       O      0.828390000000     0.005310000000     0.100740000000    -0.573183   
O7       O      0.020680000000     0.905930000000     0.173190000000    -0.596714   
O8       O      0.005590000000     0.091800000000     0.169000000000    -0.629468   
O9       O      0.062630000000     0.933450000000     0.058390000000    -1.48661    
O10      O      0.937300000000     0.061770000000     0.063550000000    -1.4599     
O11      O      0.925990000000     0.923590000000     0.070370000000    -1.07413    
O12      O      0.066810000000     0.062440000000     0.058110000000    -1.64362    
O13      O      0.984140000000     0.818150000000     0.908880000000    -0.570634   
O14      O      0.005620000000     0.166380000000     0.899500000000    -0.610393   
O15      O      0.821300000000     0.903600000000     0.010510000000    -0.556842   
O16      O      0.169990000000     0.900290000000     0.003640000000    -0.610269   
O17      O      0.170550000000     0.087930000000     0.979120000000    -0.618786   
O18      O      0.824340000000     0.091060000000     0.006850000000    -0.567204   
O19      O      0.892900000000     0.990000000000     0.829180000000    -0.560803   
O20      O      0.079330000000     0.989290000000     0.818350000000    -0.574899   
O21      O      0.816770000000     0.990980000000     0.915140000000    -0.559189   
O22      O      0.165390000000     0.993830000000     0.894170000000    -0.626875   
O23      O      0.901360000000     0.821190000000     0.009810000000    -0.570036   
O24      O      0.906090000000     0.172400000000     0.002540000000    -0.61074    
O25      O      0.089080000000     0.168640000000     0.983240000000    -0.624594   
O26      O      0.087360000000     0.820570000000     0.003750000000    -0.575774   
O27      O      0.984470000000     0.898480000000     0.825700000000    -0.576524   
O28      O      0.992970000000     0.083390000000     0.820160000000    -0.575272   
O29      O      0.057500000000     0.056660000000     0.928680000000    -1.4707     
O30      O      0.928450000000     0.930610000000     0.939220000000    -1.36941    
O31      O      0.919460000000     0.060240000000     0.926330000000    -1.05491    
O32      O      0.057650000000     0.918560000000     0.922680000000    -1.05262    
O33      O      0.991650000000     0.324930000000     0.395040000000    -0.628621   
O34      O      0.004760000000     0.673450000000     0.403840000000    -0.57169    
O35      O      0.903730000000     0.487920000000     0.317950000000    -0.597885   
O36      O      0.090520000000     0.508940000000     0.318290000000    -0.61792    
O37      O      0.170850000000     0.506610000000     0.400250000000    -0.634223   
O38      O      0.823880000000     0.488510000000     0.400290000000    -0.584384   
O39      O      0.001660000000     0.594310000000     0.319670000000    -0.609493   
O40      O      0.992840000000     0.408490000000     0.316040000000    -0.629169   
O41      O      0.061750000000     0.561080000000     0.429840000000    -1.47006    
O42      O      0.934960000000     0.433820000000     0.427260000000    -1.47636    
O43      O      0.924380000000     0.571010000000     0.427890000000    -1.07718    
O44      O      0.063970000000     0.431120000000     0.423660000000    -1.63472    
O45      O      0.989150000000     0.666930000000     0.590420000000    -0.566506   
O46      O      0.008410000000     0.318520000000     0.581070000000    -0.607814   
O47      O      0.824940000000     0.590190000000     0.491050000000    -0.565008   
O48      O      0.172660000000     0.587740000000     0.492950000000    -0.626284   
O49      O      0.171980000000     0.403780000000     0.493040000000    -0.632958   
O50      O      0.823750000000     0.401450000000     0.488150000000    -0.568668   
O51      O      0.904270000000     0.500890000000     0.667130000000    -0.564573   
O52      O      0.092760000000     0.481260000000     0.665900000000    -0.565782   
O53      O      0.823940000000     0.502230000000     0.585110000000    -0.57961    
O54      O      0.172270000000     0.480450000000     0.583230000000    -0.615845   
O55      O      0.906380000000     0.671950000000     0.495260000000    -0.568133   
O56      O      0.905200000000     0.320860000000     0.482060000000    -0.61473    
O57      O      0.090400000000     0.322190000000     0.492820000000    -0.631344   
O58      O      0.091890000000     0.669990000000     0.496860000000    -0.577005   
O59      O      0.998140000000     0.583860000000     0.670410000000    -0.577437   
O60      O      0.999060000000     0.398230000000     0.664330000000    -0.587333   
O61      O      0.061230000000     0.430570000000     0.554060000000    -1.4877     
O62      O      0.934970000000     0.557560000000     0.557320000000    -1.38372    
O63      O      0.924160000000     0.427710000000     0.565040000000    -1.05708    
O64      O      0.064150000000     0.567490000000     0.568410000000    -1.05399    
O65      O      0.674470000000     0.000980000000     0.414970000000    -0.624518   
O66      O      0.327920000000     0.002480000000     0.398490000000    -0.579265   
O67      O      0.514640000000     0.906240000000     0.325490000000    -0.618935   
O68      O      0.495390000000     0.091500000000     0.324770000000    -0.622269   
O69      O      0.493610000000     0.173740000000     0.405980000000    -0.638213   
O70      O      0.500460000000     0.825250000000     0.406770000000    -0.555471   
O71      O      0.412380000000     0.999980000000     0.319870000000    -0.61965    
O72      O      0.596470000000     0.999510000000     0.329950000000    -0.641753   
O73      O      0.436030000000     0.061980000000     0.432630000000    -1.48427    
O74      O      0.563910000000     0.935440000000     0.439050000000    -1.45455    
O75      O      0.426990000000     0.924270000000     0.431340000000    -1.04712    
O76      O      0.564850000000     0.066510000000     0.435820000000    -1.63202    
O77      O      0.318910000000     0.000020000000     0.584760000000    -0.574389   
O78      O      0.668670000000     0.010490000000     0.598430000000    -0.608962   
O79      O      0.408430000000     0.822550000000     0.499580000000    -0.581865   
O80      O      0.400960000000     0.172520000000     0.481010000000    -0.597884   
O81      O      0.587850000000     0.174910000000     0.508460000000    -0.6236     
O82      O      0.589820000000     0.825140000000     0.502870000000    -0.592738   
O83      O      0.489790000000     0.911860000000     0.677520000000    -0.580494   
O84      O      0.487420000000     0.094580000000     0.672780000000    -0.58779    
O85      O      0.483270000000     0.827740000000     0.598230000000    -0.533855   
O86      O      0.489400000000     0.175920000000     0.591660000000    -0.620942   
O87      O      0.325360000000     0.902130000000     0.498020000000    -0.568976   
O88      O      0.671430000000     0.905980000000     0.497500000000    -0.595172   
O89      O      0.669190000000     0.092860000000     0.511470000000    -0.61614    
O90      O      0.321930000000     0.089280000000     0.483460000000    -0.577268   
O91      O      0.397090000000     0.999630000000     0.669710000000    -0.56516    
O92      O      0.584100000000     0.011860000000     0.676760000000    -0.571328   
O93      O      0.557590000000     0.065670000000     0.564670000000    -1.4592     
O94      O      0.431790000000     0.936630000000     0.561760000000    -1.38178    
O95      O      0.560920000000     0.927110000000     0.577470000000    -1.06843    
O96      O      0.419450000000     0.065730000000     0.568780000000    -1.06767    
O97      O      0.325340000000     0.403630000000     0.990410000000    -0.619613   
O98      O      0.672020000000     0.403780000000     0.006900000000    -0.561394   
O99      O      0.497410000000     0.321590000000     0.903430000000    -0.616993   
O100     O      0.502000000000     0.325950000000     0.090570000000    -0.615285   
O101     O      0.504320000000     0.410030000000     0.168760000000    -0.633872   
O102     O      0.500700000000     0.401780000000     0.820310000000    -0.583364   
O103     O      0.589990000000     0.323610000000     0.010480000000    -0.613851   
O104     O      0.406840000000     0.321920000000     0.992210000000    -0.624974   
O105     O      0.561690000000     0.436070000000     0.058310000000    -1.475      
O106     O      0.434540000000     0.431850000000     0.930360000000    -1.45457    
O107     O      0.572450000000     0.430270000000     0.921530000000    -1.05541    
O108     O      0.432050000000     0.432860000000     0.060700000000    -1.64851    
O109     O      0.672670000000     0.592410000000     0.984740000000    -0.56318    
O110     O      0.323900000000     0.590660000000     0.995990000000    -0.612573   
O111     O      0.591690000000     0.496710000000     0.818610000000    -0.565231   
O112     O      0.591350000000     0.497030000000     0.167330000000    -0.612455   
O113     O      0.405400000000     0.504660000000     0.166140000000    -0.63115    
O114     O      0.404660000000     0.488890000000     0.819170000000    -0.56989    
O115     O      0.505490000000     0.670370000000     0.894220000000    -0.55178    
O116     O      0.492490000000     0.674360000000     0.084560000000    -0.560077   
O117     O      0.496360000000     0.586820000000     0.814460000000    -0.558764   
O118     O      0.491990000000     0.593080000000     0.166810000000    -0.63054    
O119     O      0.673620000000     0.494010000000     0.899870000000    -0.569532   
O120     O      0.322570000000     0.488770000000     0.900160000000    -0.609292   
O121     O      0.323650000000     0.501690000000     0.084720000000    -0.624974   
O122     O      0.673310000000     0.500670000000     0.086230000000    -0.578203   
O123     O      0.590610000000     0.673740000000     0.986600000000    -0.567922   
O124     O      0.404520000000     0.673210000000     0.990630000000    -0.574804   
O125     O      0.433980000000     0.563020000000     0.055090000000    -1.46068    
O126     O      0.561660000000     0.560430000000     0.928150000000    -1.36468    
O127     O      0.432250000000     0.570030000000     0.917470000000    -1.04923    
O128     O      0.571660000000     0.573860000000     0.057160000000    -1.04788    
S1       S      0.500320000000     0.397040000000     0.298790000000    -0.0251541  
S2       S      0.405860000000     0.796600000000     0.173980000000    -0.0327685  
S3       S      0.369740000000     0.749840000000     0.648510000000    -0.0134192  
S4       S      0.443260000000     0.108120000000     0.795380000000    -0.0119744  
S5       S      0.888670000000     0.191150000000     0.478560000000    -0.0198391  
S6       S      0.608410000000     0.707980000000     0.443150000000    -0.0160554  
S7       S      0.193160000000     0.100940000000     0.466610000000    -0.0176693  
S8       S      0.388360000000     0.705660000000     0.561180000000    -0.00444685 
S9       S      0.696280000000     0.465590000000     0.387710000000    -0.0145754  
S10      S      0.296510000000     0.540420000000     0.387130000000    -0.0140656  
S11      S      0.300400000000     0.461040000000     0.596060000000    -0.0125721  
S12      S      0.698100000000     0.534050000000     0.598810000000    -0.0155803  
S13      S      0.695380000000     0.887460000000     0.044720000000    -0.0191554  
S14      S      0.603350000000     0.195710000000     0.032280000000    -0.0138415  
S15      S      0.101040000000     0.691070000000     0.011130000000    -0.0143921  
S16      S      0.102930000000     0.297720000000     0.969680000000    -0.0188348  
S17      S      0.687190000000     0.005660000000     0.903350000000    -0.0144898  
S18      S      0.091600000000     0.001620000000     0.688000000000    -0.0200308  
S19      S      0.177210000000     0.909060000000     0.281370000000    -0.0249848  
S20      S      0.893100000000     0.064090000000     0.297550000000    -0.0208124  
S21      S      0.908860000000     0.169990000000     0.707520000000    -0.0273674  
S22      S      0.082310000000     0.672950000000     0.782800000000    -0.0332639  
S23      S      0.080080000000     0.888500000000     0.291550000000    -0.000264409
S24      S      0.980310000000     0.395030000000     0.186510000000    -0.0226094  


