data_structure

_audit_creation_method RASPA-1.0
_audit_creation_date 2023-5-19
_audit_author_name 'Poobodin Mano'

_cell_length_a    21.4688
_cell_length_b    22.4359
_cell_length_c    22.2103
_cell_angle_alpha 90
_cell_angle_beta  90
_cell_angle_gamma 90
_cell_volume      10698.1

_symmetry_cell_setting          triclinic
_symmetry_space_group_name_Hall 'P 1'
_symmetry_space_group_name_H-M  'P 1'
_symmetry_Int_Tables_number     1

_symmetry_equiv_pos_as_xyz 'x,y,z'

loop_
_atom_site_label
_atom_site_type_symbol
_atom_site_fract_x
_atom_site_fract_y
_atom_site_fract_z
_atom_site_charge
C1       C      0.077180000000     0.246870000000     0.219070000000     0.523678   
C2       C      0.182310000000     0.981760000000     0.232800000000     0.512042   
C3       C      0.983860000000     0.073340000000     0.245710000000     0.519438   
C4       C      0.268890000000     0.154530000000     0.203750000000     0.510785   
C5       C      0.140820000000     0.958000000000     0.942750000000     0.501438   
C6       C      0.041680000000     0.228870000000     0.939920000000     0.52411    
C7       C      0.009280000000     0.922600000000     0.096950000000     0.498046   
C8       C      0.297980000000     0.010950000000     0.084470000000     0.518592   
C9       C      0.201210000000     0.278320000000     0.050310000000     0.519128   
C10      C      0.923470000000     0.192240000000     0.113080000000     0.524079   
C11      C      0.959140000000     0.033890000000     0.959760000000     0.515632   
C12      C      0.221320000000     0.153720000000     0.920350000000     0.522536   
C13      C      0.017170000000     0.417970000000     0.424990000000     0.528923   
C14      C      0.081630000000     0.694080000000     0.448860000000     0.519682   
C15      C      0.916480000000     0.553930000000     0.492240000000     0.517321   
C16      C      0.187040000000     0.560740000000     0.376670000000     0.51906    
C17      C      0.181680000000     0.641880000000     0.720830000000     0.500082   
C18      C      0.173860000000     0.361590000000     0.657910000000     0.522589   
C19      C      0.992700000000     0.675810000000     0.647230000000     0.497992   
C20      C      0.267030000000     0.665160000000     0.527220000000     0.51005    
C21      C      0.229880000000     0.384850000000     0.479650000000     0.512675   
C22      C      0.957740000000     0.396360000000     0.588960000000     0.521203   
C23      C      0.038810000000     0.506850000000     0.753760000000     0.506299   
C24      C      0.307680000000     0.488130000000     0.631990000000     0.516206   
C25      C      0.769700000000     0.150200000000     0.550260000000     0.510978   
C26      C      0.490560000000     0.088510000000     0.462560000000     0.511303   
C27      C      0.676410000000     0.978170000000     0.503150000000     0.506338   
C28      C      0.587890000000     0.254500000000     0.511660000000     0.511808   
C29      C      0.417200000000     0.033710000000     0.735740000000     0.511321   
C30      C      0.671480000000     0.145690000000     0.823770000000     0.523424   
C31      C      0.490130000000     0.928960000000     0.597060000000     0.503664   
C32      C      0.415980000000     0.207100000000     0.596190000000     0.519504   
C33      C      0.682130000000     0.272260000000     0.701410000000     0.518739   
C34      C      0.771590000000     0.000810000000     0.671810000000     0.509083   
C35      C      0.603980000000     0.953430000000     0.780600000000     0.514705   
C36      C      0.505130000000     0.218760000000     0.787540000000     0.518595   
C37      C      0.533250000000     0.414880000000     0.103190000000     0.51705    
C38      C      0.437060000000     0.683320000000     0.085000000000     0.518179   
C39      C      0.521860000000     0.549150000000     0.238970000000     0.519543   
C40      C      0.453290000000     0.545330000000     0.957670000000     0.515144   
C41      C      0.724830000000     0.768330000000     0.042100000000     0.499843   
C42      C      0.805170000000     0.497940000000     0.020440000000     0.520378   
C43      C      0.614800000000     0.743390000000     0.201870000000     0.497469   
C44      C      0.526520000000     0.707960000000     0.928740000000     0.522746   
C45      C      0.644850000000     0.450640000000     0.923120000000     0.522617   
C46      C      0.692550000000     0.461540000000     0.206240000000     0.515515   
C47      C      0.793520000000     0.645340000000     0.175290000000     0.504086   
C48      C      0.730310000000     0.619530000000     0.890920000000     0.520953   
C49      C      0.666810000000     0.362400000000     0.331590000000    -0.0828054  
C50      C      0.640540000000     0.363060000000     0.395730000000    -0.0858433  
C51      C      0.616560000000     0.300910000000     0.413700000000     0.0203265  
C52      C      0.692230000000     0.423400000000     0.311660000000     0.0186509  
C53      C      0.678930000000     0.869360000000     0.380290000000    -0.0838996  
C54      C      0.653370000000     0.861740000000     0.316220000000    -0.0836277  
C55      C      0.645350000000     0.795430000000     0.298070000000     0.0171117  
C56      C      0.685520000000     0.935560000000     0.399330000000     0.0177634  
C57      C      0.532430000000     0.837610000000     0.881700000000    -0.074556   
C58      C      0.562930000000     0.820450000000     0.821030000000    -0.0756098  
C59      C      0.626350000000     0.850490000000     0.813610000000     0.0205352  
C60      C      0.474380000000     0.800960000000     0.895530000000     0.0226359  
C61      C      0.534290000000     0.339740000000     0.873980000000    -0.0726191  
C62      C      0.598780000000     0.315740000000     0.855020000000    -0.0766093  
C63      C      0.652070000000     0.345170000000     0.890060000000     0.0176927  
C64      C      0.482280000000     0.318110000000     0.831980000000     0.018975   
C65      C      0.810680000000     0.365460000000     0.695830000000    -0.0798619  
C66      C      0.804790000000     0.340890000000     0.631460000000    -0.069342   
C67      C      0.843980000000     0.376750000000     0.586780000000     0.0163402  
C68      C      0.773340000000     0.328510000000     0.741330000000     0.0197748  
C69      C      0.897220000000     0.881120000000     0.670510000000    -0.0864721  
C70      C      0.896290000000     0.812400000000     0.667070000000    -0.0822708  
C71      C      0.961250000000     0.782600000000     0.666660000000     0.0162495  
C72      C      0.829950000000     0.905670000000     0.668750000000     0.0199273  
C73      C      0.372160000000     0.309730000000     0.463300000000    -0.079462   
C74      C      0.356690000000     0.242310000000     0.469210000000    -0.071119   
C75      C      0.325420000000     0.224780000000     0.529200000000     0.0181977  
C76      C      0.324510000000     0.345670000000     0.426540000000     0.021595   
C77      C      0.437730000000     0.772580000000     0.558810000000    -0.0817857  
C78      C      0.373640000000     0.768270000000     0.590900000000    -0.0796714  
C79      C      0.318200000000     0.763330000000     0.546990000000     0.0184651  
C80      C      0.482220000000     0.817920000000     0.588650000000     0.0193224  
C81      C      0.844830000000     0.606840000000     0.305310000000    -0.0788312  
C82      C      0.850270000000     0.613430000000     0.374210000000    -0.0798754  
C83      C      0.842980000000     0.552940000000     0.405950000000     0.024857   
C84      C      0.844090000000     0.667820000000     0.273650000000     0.0226961  
C85      C      0.384060000000     0.561100000000     0.296370000000    -0.0816629  
C86      C      0.316640000000     0.539840000000     0.304200000000    -0.077837   
C87      C      0.272980000000     0.593550000000     0.310150000000     0.0235622  
C88      C      0.429990000000     0.509060000000     0.293610000000     0.0245546  
C89      C      0.394050000000     0.494710000000     0.821770000000    -0.08147    
C90      C      0.383060000000     0.511400000000     0.755280000000    -0.0801449  
C91      C      0.378290000000     0.456090000000     0.714770000000     0.0228162  
C92      C      0.393370000000     0.550480000000     0.861780000000     0.0205733  
C93      C      0.856250000000     0.565290000000     0.837810000000    -0.0793167  
C94      C      0.926820000000     0.564400000000     0.828190000000    -0.0809251  
C95      C      0.950920000000     0.500100000000     0.825800000000     0.0254344  
C96      C      0.829950000000     0.628690000000     0.835400000000     0.0233468  
C97      C      0.863890000000     0.882250000000     0.118150000000    -0.0722008  
C98      C      0.803730000000     0.910380000000     0.090730000000    -0.0824015  
C99      C      0.747120000000     0.868010000000     0.084850000000     0.018978   
C100     C      0.913890000000     0.865650000000     0.070520000000     0.0211865  
C101     C      0.862740000000     0.310460000000     0.063300000000    -0.0782402  
C102     C      0.866230000000     0.378530000000     0.065010000000    -0.0768168  
C103     C      0.863580000000     0.404910000000     0.001330000000     0.0247447  
C104     C      0.862300000000     0.284410000000     0.127140000000     0.0254192  
C105     C      0.361060000000     0.877940000000     0.074230000000    -0.0795309  
C106     C      0.373090000000     0.816810000000     0.103290000000    -0.0820934  
C107     C      0.367550000000     0.767040000000     0.056600000000     0.0242901  
C108     C      0.363970000000     0.927720000000     0.121190000000     0.0233206  
C109     C      0.332320000000     0.342370000000     0.083640000000    -0.0797056  
C110     C      0.401920000000     0.351420000000     0.070520000000    -0.0793882  
C111     C      0.440190000000     0.353990000000     0.128780000000     0.0216643  
C112     C      0.294450000000     0.339140000000     0.025170000000     0.0224022  
C113     C      0.837550000000     0.087300000000     0.919580000000    -0.0777301  
C114     C      0.768390000000     0.100070000000     0.917080000000    -0.0799982  
C115     C      0.756010000000     0.163810000000     0.895610000000     0.0215047  
C116     C      0.850060000000     0.021360000000     0.932370000000     0.0227802  
C117     C      0.325560000000     0.134480000000     0.802050000000    -0.0760537  
C118     C      0.284760000000     0.077370000000     0.801040000000    -0.0748958  
C119     C      0.304160000000     0.032980000000     0.752050000000     0.0180307  
C120     C      0.315920000000     0.171210000000     0.859710000000     0.0193334  
C121     C      0.429810000000     0.156790000000     0.331600000000    -0.0782279  
C122     C      0.361810000000     0.134060000000     0.332990000000    -0.0793911  
C123     C      0.315360000000     0.177650000000     0.304330000000     0.0200694  
C124     C      0.477550000000     0.109640000000     0.352290000000     0.018868   
C125     C      0.892880000000     0.134060000000     0.440860000000    -0.0849125  
C126     C      0.897580000000     0.126380000000     0.372420000000    -0.0817558  
C127     C      0.954100000000     0.088590000000     0.353650000000     0.0204846  
C128     C      0.833520000000     0.168230000000     0.458060000000     0.0209214  
C129     C      0.105010000000     0.281200000000     0.824870000000    -0.0805267  
C130     C      0.123990000000     0.275730000000     0.759170000000    -0.0785257  
C131     C      0.189590000000     0.300340000000     0.747770000000     0.0186397  
C132     C      0.037800000000     0.260270000000     0.834000000000     0.0242728  
C133     C      0.189540000000     0.761570000000     0.838890000000    -0.085231   
C134     C      0.176900000000     0.828860000000     0.840000000000    -0.0831647  
C135     C      0.169840000000     0.856060000000     0.903490000000     0.0182221  
C136     C      0.192070000000     0.739280000000     0.773160000000     0.0194443  
C137     C      0.144520000000     0.806920000000     0.352630000000    -0.0826172  
C138     C      0.169740000000     0.870490000000     0.347350000000    -0.0836027  
C139     C      0.196010000000     0.883960000000     0.284200000000     0.0182507  
C140     C      0.113240000000     0.795680000000     0.414120000000     0.0193667  
C141     C      0.960160000000     0.299410000000     0.297580000000    -0.071718   
C142     C      0.949990000000     0.367030000000     0.286280000000    -0.0812508  
C143     C      0.937760000000     0.404470000000     0.343160000000     0.0230652  
C144     C      0.028400000000     0.282180000000     0.312050000000     0.0184025  
Eu1      Eu     0.121750000000     0.108330000000     0.189420000000     3.51172    
Eu2      Eu     0.143850000000     0.998970000000     0.087660000000     3.0095     
Eu3      Eu     0.073080000000     0.200680000000     0.080000000000     3.61911    
Eu4      Eu     0.004510000000     0.068190000000     0.098460000000     3.08664    
Eu5      Eu     0.213120000000     0.132400000000     0.067300000000     3.51609    
Eu6      Eu     0.095520000000     0.094160000000     0.978230000000     3.08157    
Eu7      Eu     0.067360000000     0.550800000000     0.469260000000     3.58879    
Eu8      Eu     0.125370000000     0.635210000000     0.581040000000     2.98984    
Eu9      Eu     0.100970000000     0.427030000000     0.547920000000     3.57864    
Eu10     Eu     0.012000000000     0.533870000000     0.608970000000     3.05205    
Eu11     Eu     0.214120000000     0.527290000000     0.519850000000     3.49648    
Eu12     Eu     0.157900000000     0.509270000000     0.659980000000     3.07689    
Eu13     Eu     0.620020000000     0.112190000000     0.540250000000     3.40979    
Eu14     Eu     0.487420000000     0.074890000000     0.610140000000     3.04289    
Eu15     Eu     0.691320000000     0.127400000000     0.676150000000     3.48479    
Eu16     Eu     0.620640000000     0.999100000000     0.639650000000     3.04225    
Eu17     Eu     0.557770000000     0.202190000000     0.647990000000     3.6081     
Eu18     Eu     0.558320000000     0.088540000000     0.744430000000     3.11721    
Eu19     Eu     0.522020000000     0.561470000000     0.090940000000     3.55949    
Eu20     Eu     0.590530000000     0.693970000000     0.064950000000     3.03851    
Eu21     Eu     0.658960000000     0.491960000000     0.065600000000     3.52169    
Eu22     Eu     0.647880000000     0.600040000000     0.170570000000     3.03309    
Eu23     Eu     0.601120000000     0.586110000000     0.961690000000     3.59218    
Eu24     Eu     0.727480000000     0.623180000000     0.040680000000     3.05129    
H1       H      0.085940000000     0.039550000000     0.191440000000    -0.201213   
H2       H      0.177070000000     0.216340000000     0.153860000000     0.41478    
H3       H      0.014460000000     0.172720000000     0.035580000000    -0.213336   
H4       H      0.218630000000     0.073890000000     0.015100000000    -0.157974   
H5       H      0.025990000000     0.605650000000     0.506970000000    -0.191238   
H6       H      0.146120000000     0.459220000000     0.433810000000     0.408503   
H7       H      0.073240000000     0.423750000000     0.621650000000    -0.178974   
H8       H      0.235430000000     0.568900000000     0.581500000000    -0.199351   
H9       H      0.581450000000     0.045360000000     0.529320000000    -0.169232   
H10      H      0.672920000000     0.216420000000     0.590400000000     0.403712   
H11      H      0.685730000000     0.067510000000     0.726370000000    -0.145787   
H12      H      0.491780000000     0.174430000000     0.681320000000    -0.21333    
H13      H      0.523050000000     0.619840000000     0.142510000000    -0.184296   
H14      H      0.548760000000     0.478050000000     0.999750000000     0.412217   
H15      H      0.721780000000     0.518340000000     0.107130000000    -0.176876   
H16      H      0.636550000000     0.655500000000     0.955770000000    -0.193651   
H17      H      0.734560000000     0.434080000000     0.338390000000     0.0216444  
H18      H      0.656810000000     0.458720000000     0.319760000000     0.0342884  
H19      H      0.580130000000     0.286290000000     0.381330000000     0.0243601  
H20      H      0.655440000000     0.268170000000     0.411600000000     0.0270009  
H21      H      0.601610000000     0.395690000000     0.398190000000     0.0418474  
H22      H      0.677570000000     0.377040000000     0.427780000000     0.0403579  
H23      H      0.569960000000     0.342300000000     0.489530000000     0.097773   
H24      H      0.704920000000     0.328900000000     0.328700000000     0.0394546  
H25      H      0.629170000000     0.348760000000     0.300000000000     0.0456826  
H26      H      0.727380000000     0.379910000000     0.231930000000     0.0985905  
H27      H      0.641520000000     0.960230000000     0.390330000000     0.0290468  
H28      H      0.723360000000     0.956730000000     0.372740000000     0.0251231  
H29      H      0.691410000000     0.772790000000     0.296300000000     0.0298918  
H30      H      0.616390000000     0.771870000000     0.332030000000     0.0268943  
H31      H      0.685420000000     0.883710000000     0.283740000000     0.0423117  
H32      H      0.607350000000     0.884380000000     0.313590000000     0.0425764  
H33      H      0.592600000000     0.829870000000     0.222980000000     0.0998272  
H34      H      0.646760000000     0.846700000000     0.412200000000     0.045062   
H35      H      0.725210000000     0.847300000000     0.383450000000     0.0414128  
H36      H      0.722970000000     0.901120000000     0.482150000000     0.100569   
H37      H      0.436800000000     0.812930000000     0.863260000000     0.0183255  
H38      H      0.458750000000     0.811810000000     0.941840000000     0.0271579  
H39      H      0.659120000000     0.831700000000     0.847430000000     0.0233549  
H40      H      0.644800000000     0.841200000000     0.767780000000     0.032921   
H41      H      0.531740000000     0.833930000000     0.783430000000     0.0460271  
H42      H      0.570630000000     0.771620000000     0.817760000000     0.0438643  
H43      H      0.619070000000     0.928860000000     0.868960000000     0.100708   
H44      H      0.566650000000     0.831870000000     0.918850000000     0.0492461  
H45      H      0.518220000000     0.885250000000     0.880920000000     0.0427367  
H46      H      0.472650000000     0.715630000000     0.851830000000     0.101803   
H47      H      0.489330000000     0.336690000000     0.786060000000     0.0336103  
H48      H      0.437320000000     0.335290000000     0.849730000000     0.0163444  
H49      H      0.647840000000     0.334200000000     0.938720000000     0.0301815  
H50      H      0.696730000000     0.326510000000     0.873230000000     0.0262294  
H51      H      0.605940000000     0.323620000000     0.806120000000     0.0555828  
H52      H      0.600920000000     0.266930000000     0.863070000000     0.0497121  
H53      H      0.647510000000     0.423610000000     0.834290000000     0.100325   
H54      H      0.524070000000     0.325420000000     0.920900000000     0.0335919  
H55      H      0.533770000000     0.389250000000     0.873040000000     0.0313448  
H56      H      0.464190000000     0.232060000000     0.870920000000     0.0991079  
H57      H      0.774970000000     0.352200000000     0.785240000000     0.0207254  
H58      H      0.795800000000     0.284260000000     0.747330000000     0.0356628  
H59      H      0.825660000000     0.367310000000     0.540930000000     0.0183099  
H60      H      0.838370000000     0.425400000000     0.594710000000     0.036519   
H61      H      0.755400000000     0.344020000000     0.616740000000     0.0300106  
H62      H      0.818440000000     0.293060000000     0.630150000000     0.0408625  
H63      H      0.918340000000     0.313110000000     0.577490000000     0.0999193  
H64      H      0.860460000000     0.365490000000     0.709720000000     0.0457165  
H65      H      0.793660000000     0.412280000000     0.696970000000     0.0423192  
H66      H      0.680830000000     0.362040000000     0.723800000000     0.0964011  
H67      H      0.801660000000     0.883970000000     0.704560000000     0.0295021  
H68      H      0.808050000000     0.893620000000     0.624990000000     0.033896   
H69      H      0.986960000000     0.794710000000     0.624960000000     0.0326828  
H70      H      0.988630000000     0.798570000000     0.705930000000     0.0258771  
H71      H      0.871070000000     0.798400000000     0.625660000000     0.044574   
H72      H      0.869680000000     0.795510000000     0.706550000000     0.042101   
H73      H      0.914070000000     0.701520000000     0.693060000000     0.0979509  
H74      H      0.920120000000     0.895170000000     0.713110000000     0.0434561  
H75      H      0.924010000000     0.899460000000     0.631900000000     0.0443439  
H76      H      0.866760000000     0.994390000000     0.688540000000     0.0993209  
H77      H      0.323730000000     0.327530000000     0.379960000000     0.0141888  
H78      H      0.339860000000     0.392930000000     0.424210000000     0.0270786  
H79      H      0.280540000000     0.248880000000     0.533970000000     0.0286574  
H80      H      0.315850000000     0.176080000000     0.528700000000     0.0319507  
H81      H      0.400760000000     0.216540000000     0.465340000000     0.0472491  
H82      H      0.326620000000     0.227600000000     0.431360000000     0.0355481  
H83      H      0.362960000000     0.283800000000     0.596070000000     0.105237   
H84      H      0.378270000000     0.331420000000     0.507760000000     0.0530218  
H85      H      0.417790000000     0.313860000000     0.439950000000     0.0393249  
H86      H      0.239780000000     0.299120000000     0.447380000000     0.0985776  
H87      H      0.528990000000     0.814820000000     0.567370000000     0.0287396  
H88      H      0.488260000000     0.807270000000     0.637190000000     0.0260421  
H89      H      0.274750000000     0.774170000000     0.571870000000     0.0338257  
H90      H      0.323410000000     0.797120000000     0.510740000000     0.0217123  
H91      H      0.365450000000     0.807980000000     0.619740000000     0.0428512  
H92      H      0.373600000000     0.729270000000     0.621810000000     0.0461593  
H93      H      0.354370000000     0.689200000000     0.495770000000     0.100241   
H94      H      0.460110000000     0.727900000000     0.559270000000     0.039182   
H95      H      0.432120000000     0.785370000000     0.510730000000     0.0441914  
H96      H      0.412950000000     0.884620000000     0.566080000000     0.102837   
H97      H      0.885940000000     0.693610000000     0.287560000000     0.0189152  
H98      H      0.801750000000     0.692770000000     0.287830000000     0.0298439  
H99      H      0.794090000000     0.537470000000     0.400470000000     0.017265   
H100     H      0.874270000000     0.519750000000     0.384390000000     0.033797   
H101     H      0.813540000000     0.644150000000     0.391070000000     0.042378   
H102     H      0.896450000000     0.633040000000     0.385230000000     0.0536229  
H103     H      0.820280000000     0.558550000000     0.500790000000     0.0983325  
H104     H      0.885020000000     0.580410000000     0.288380000000     0.045012   
H105     H      0.801390000000     0.582210000000     0.294310000000     0.0546744  
H106     H      0.885680000000     0.671550000000     0.184940000000     0.0993996  
H107     H      0.419670000000     0.480860000000     0.253630000000     0.0318812  
H108     H      0.424920000000     0.481580000000     0.335010000000     0.0164173  
H109     H      0.289020000000     0.622400000000     0.347900000000     0.0324352  
H110     H      0.274730000000     0.619940000000     0.267780000000     0.0177054  
H111     H      0.313270000000     0.511550000000     0.345160000000     0.0466769  
H112     H      0.302520000000     0.512710000000     0.264570000000     0.0386065  
H113     H      0.176860000000     0.579570000000     0.285830000000     0.0975098  
H114     H      0.387870000000     0.587750000000     0.254270000000     0.0492221  
H115     H      0.396980000000     0.590240000000     0.334960000000     0.044419   
H116     H      0.517390000000     0.538100000000     0.331580000000     0.0989384  
H117     H      0.347560000000     0.572960000000     0.856140000000     0.0211714  
H118     H      0.430350000000     0.581880000000     0.846770000000     0.0385502  
H119     H      0.423120000000     0.431310000000     0.716620000000     0.0190077  
H120     H      0.340530000000     0.426530000000     0.731750000000     0.0339951  
H121     H      0.422100000000     0.539840000000     0.739200000000     0.0433603  
H122     H      0.339270000000     0.537610000000     0.751640000000     0.0550916  
H123     H      0.402340000000     0.472150000000     0.621470000000     0.0996609  
H124     H      0.356820000000     0.463740000000     0.837110000000     0.0422064  
H125     H      0.439760000000     0.471820000000     0.826400000000     0.0422543  
H126     H      0.360690000000     0.520650000000     0.948630000000     0.0971452  
H127     H      0.843540000000     0.649820000000     0.792040000000     0.0187196  
H128     H      0.849120000000     0.655470000000     0.873250000000     0.0338515  
H129     H      0.943980000000     0.478840000000     0.870550000000     0.017762   
H130     H      0.924280000000     0.474390000000     0.791500000000     0.0288895  
H131     H      0.950250000000     0.588530000000     0.865620000000     0.0445972  
H132     H      0.938040000000     0.587590000000     0.785300000000     0.056294   
H133     H      0.049000000000     0.491310000000     0.845390000000     0.0997341  
H134     H      0.833400000000     0.538210000000     0.802080000000     0.0440788  
H135     H      0.845070000000     0.544940000000     0.882210000000     0.0538607  
H136     H      0.737750000000     0.621210000000     0.797910000000     0.100967   
H137     H      0.909720000000     0.895400000000     0.030640000000     0.0341031  
H138     H      0.905200000000     0.819310000000     0.055030000000     0.0216201  
H139     H      0.734640000000     0.849680000000     0.129830000000     0.0276593  
H140     H      0.706120000000     0.893810000000     0.068940000000     0.0264312  
H141     H      0.813190000000     0.931000000000     0.046250000000     0.0456102  
H142     H      0.789020000000     0.947560000000     0.120630000000     0.0385298  
H143     H      0.802150000000     0.818020000000     0.021030000000     0.102834   
H144     H      0.884070000000     0.915120000000     0.150090000000     0.0556828  
H145     H      0.852160000000     0.842200000000     0.145380000000     0.044158   
H146     H      0.004040000000     0.830310000000     0.096200000000     0.0966925  
H147     H      0.817690000000     0.296230000000     0.149630000000     0.016313   
H148     H      0.901470000000     0.303600000000     0.153630000000     0.0306569  
H149     H      0.906650000000     0.392530000000     0.976460000000     0.0175273  
H150     H      0.822630000000     0.386500000000     0.976820000000     0.0328098  
H151     H      0.910470000000     0.392650000000     0.086850000000     0.0425113  
H152     H      0.826950000000     0.395600000000     0.092640000000     0.0527054  
H153     H      0.897870000000     0.495280000000     0.993670000000     0.0991008  
H154     H      0.819550000000     0.296150000000     0.039690000000     0.0418851  
H155     H      0.903350000000     0.293260000000     0.037550000000     0.0535977  
H156     H      0.828440000000     0.193640000000     0.130810000000     0.0990111  
H157     H      0.410490000000     0.926850000000     0.143230000000     0.0187714  
H158     H      0.327660000000     0.919930000000     0.156120000000     0.0332829  
H159     H      0.319460000000     0.767230000000     0.037940000000     0.0178531  
H160     H      0.400760000000     0.775360000000     0.019280000000     0.0326027  
H161     H      0.338590000000     0.808840000000     0.139790000000     0.0443298  
H162     H      0.420600000000     0.816130000000     0.123240000000     0.0524281  
H163     H      0.341130000000     0.682670000000     0.095130000000     0.100081   
H164     H      0.396730000000     0.886440000000     0.038910000000     0.0432689  
H165     H      0.314330000000     0.878070000000     0.052610000000     0.0506331  
H166     H      0.394500000000     0.012370000000     0.085870000000     0.101399   
H167     H      0.311430000000     0.301270000000     0.997240000000     0.0340595  
H168     H      0.301140000000     0.381250000000     0.999540000000     0.0173328  
H169     H      0.423500000000     0.391530000000     0.157290000000     0.0318404  
H170     H      0.433730000000     0.311550000000     0.153910000000     0.0170538  
H171     H      0.408430000000     0.393650000000     0.045030000000     0.041559   
H172     H      0.419260000000     0.313970000000     0.042270000000     0.0392598  
H173     H      0.533810000000     0.322810000000     0.112090000000     0.0977854  
H174     H      0.325820000000     0.300390000000     0.109530000000     0.0442293  
H175     H      0.314840000000     0.380100000000     0.111410000000     0.0388398  
H176     H      0.200030000000     0.369990000000     0.037900000000     0.0984562  
H177     H      0.822710000000     0.992840000000     0.901050000000     0.0201385  
H178     H      0.836920000000     0.010820000000     0.979570000000     0.030804   
H179     H      0.764540000000     0.195260000000     0.933420000000     0.0191272  
H180     H      0.786830000000     0.175850000000     0.857190000000     0.0328575  
H181     H      0.747250000000     0.093400000000     0.962320000000     0.0412251  
H182     H      0.746380000000     0.067890000000     0.885390000000     0.0470053  
H183     H      0.658380000000     0.172420000000     0.912010000000     0.100177   
H184     H      0.858990000000     0.099020000000     0.875470000000     0.0451263  
H185     H      0.859310000000     0.115470000000     0.955070000000     0.0502365  
H186     H      0.929420000000     0.999440000000     0.878420000000     0.101518   
H187     H      0.336280000000     0.216220000000     0.852760000000     0.0240865  
H188     H      0.340480000000     0.149470000000     0.897990000000     0.0312633  
H189     H      0.271680000000     0.994450000000     0.753760000000     0.0210545  
H190     H      0.300560000000     0.054240000000     0.706930000000     0.0337863  
H191     H      0.235330000000     0.089660000000     0.792840000000     0.043205   
H192     H      0.287120000000     0.054700000000     0.845570000000     0.0459887  
H193     H      0.374050000000     0.992480000000     0.807350000000     0.0997691  
H194     H      0.375810000000     0.123720000000     0.799750000000     0.0534747  
H195     H      0.313960000000     0.162270000000     0.762110000000     0.0437104  
H196     H      0.221310000000     0.187460000000     0.834320000000     0.0992198  
H197     H      0.524430000000     0.130510000000     0.354930000000     0.0327367  
H198     H      0.479020000000     0.073730000000     0.317840000000     0.0220019  
H199     H      0.268030000000     0.168170000000     0.322200000000     0.0298955  
H200     H      0.327750000000     0.223940000000     0.317570000000     0.0154094  
H201     H      0.347340000000     0.128000000000     0.380620000000     0.0411892  
H202     H      0.358350000000     0.090050000000     0.310130000000     0.049677   
H203     H      0.358240000000     0.186310000000     0.217100000000     0.0978725  
H204     H      0.442360000000     0.170630000000     0.285130000000     0.038642   
H205     H      0.433990000000     0.196710000000     0.360940000000     0.0420795  
H206     H      0.417270000000     0.059430000000     0.410960000000     0.101314   
H207     H      0.792810000000     0.149710000000     0.433400000000     0.0325884  
H208     H      0.839310000000     0.215590000000     0.444420000000     0.0169396  
H209     H      0.997370000000     0.115590000000     0.357230000000     0.0343849  
H210     H      0.958210000000     0.049570000000     0.384230000000     0.0232403  
H211     H      0.900750000000     0.170790000000     0.350380000000     0.0418855  
H212     H      0.854140000000     0.104410000000     0.356420000000     0.0436136  
H213     H      0.901480000000     0.045200000000     0.283720000000     0.100387   
H214     H      0.891500000000     0.089330000000     0.462460000000     0.0483976  
H215     H      0.934450000000     0.158410000000     0.457830000000     0.0418006  
H216     H      0.861770000000     0.177740000000     0.550790000000     0.0979019  
H217     H      0.033000000000     0.212880000000     0.819970000000     0.0326016  
H218     H      0.005990000000     0.288300000000     0.806400000000     0.0193331  
H219     H      0.197410000000     0.342200000000     0.773570000000     0.0347677  
H220     H      0.224610000000     0.266740000000     0.762030000000     0.0203689  
H221     H      0.089620000000     0.300890000000     0.731510000000     0.0459278  
H222     H      0.122310000000     0.228180000000     0.745010000000     0.0406581  
H223     H      0.200170000000     0.273040000000     0.656110000000     0.1031     
H224     H      0.136970000000     0.254200000000     0.853190000000     0.0538766  
H225     H      0.108690000000     0.328600000000     0.839270000000     0.0462384  
H226     H      0.004980000000     0.309180000000     0.910770000000     0.100552   
H227     H      0.232460000000     0.759960000000     0.749790000000     0.0253983  
H228     H      0.149250000000     0.753480000000     0.748800000000     0.0331522  
H229     H      0.134230000000     0.831300000000     0.929840000000     0.0277665  
H230     H      0.214620000000     0.853610000000     0.928510000000     0.026785   
H231     H      0.133080000000     0.837390000000     0.814600000000     0.0426723  
H232     H      0.215430000000     0.852330000000     0.816300000000     0.0420612  
H233     H      0.141970000000     0.934540000000     0.853920000000     0.100287   
H234     H      0.234520000000     0.751950000000     0.861720000000     0.0421597  
H235     H      0.151560000000     0.737930000000     0.863170000000     0.0448877  
H236     H      0.216020000000     0.651600000000     0.807480000000     0.0995513  
H237     H      0.081040000000     0.833070000000     0.424550000000     0.0233023  
H238     H      0.149220000000     0.793220000000     0.450080000000     0.0336181  
H239     H      0.241600000000     0.861080000000     0.279020000000     0.023734   
H240     H      0.163820000000     0.867260000000     0.248720000000     0.0314103  
H241     H      0.206770000000     0.877630000000     0.381630000000     0.0413813  
H242     H      0.131100000000     0.902240000000     0.356760000000     0.0451801  
H243     H      0.220890000000     0.971000000000     0.316920000000     0.100838   
H244     H      0.109850000000     0.799890000000     0.316080000000     0.0434016  
H245     H      0.183080000000     0.774420000000     0.346240000000     0.0452996  
H246     H      0.049280000000     0.734760000000     0.372040000000     0.1011     
H247     H      0.029380000000     0.234770000000     0.326720000000     0.0324903  
H248     H      0.047610000000     0.309470000000     0.349090000000     0.0246459  
H249     H      0.945710000000     0.452300000000     0.332670000000     0.0315118  
H250     H      0.888030000000     0.398670000000     0.355870000000     0.0197265  
H251     H      0.908860000000     0.372180000000     0.256270000000     0.0373039  
H252     H      0.989530000000     0.386960000000     0.261430000000     0.0432127  
H253     H      0.966910000000     0.341810000000     0.410520000000     0.102855   
H254     H      0.928810000000     0.283530000000     0.334010000000     0.0354754  
H255     H      0.945790000000     0.274650000000     0.256490000000     0.0467468  
H256     H      0.072460000000     0.334840000000     0.243270000000     0.0946922  
N1       N      0.589150000000     0.302240000000     0.474090000000    -0.243835   
N2       N      0.709150000000     0.420230000000     0.247830000000    -0.239853   
N3       N      0.614370000000     0.791380000000     0.239360000000    -0.235125   
N4       N      0.701440000000     0.938710000000     0.463500000000    -0.236706   
N5       N      0.619160000000     0.914170000000     0.824240000000    -0.239275   
N6       N      0.488510000000     0.737670000000     0.890410000000    -0.241052   
N7       N      0.651550000000     0.409450000000     0.879010000000    -0.243051   
N8       N      0.480300000000     0.252990000000     0.831820000000    -0.239594   
N9       N      0.909230000000     0.357660000000     0.588290000000    -0.239312   
N10      N      0.708130000000     0.323470000000     0.722250000000    -0.242069   
N11      N      0.954010000000     0.717540000000     0.671390000000    -0.234783   
N12      N      0.826510000000     0.970680000000     0.677170000000    -0.237354   
N13      N      0.366010000000     0.240200000000     0.579670000000    -0.239397   
N14      N      0.262100000000     0.340240000000     0.452430000000    -0.242294   
N15      N      0.315340000000     0.703740000000     0.519820000000    -0.237242   
N16      N      0.458300000000     0.878770000000     0.582330000000    -0.23665    
N17      N      0.857470000000     0.557590000000     0.470430000000    -0.239924   
N18      N      0.844570000000     0.661040000000     0.207840000000    -0.237692   
N19      N      0.208780000000     0.574510000000     0.321020000000    -0.24475    
N20      N      0.493530000000     0.532520000000     0.290920000000    -0.24132    
N21      N      0.365450000000     0.473390000000     0.652170000000    -0.239797   
N22      N      0.400580000000     0.534590000000     0.925560000000    -0.242129   
N23      N      0.017190000000     0.499410000000     0.810690000000    -0.24008    
N24      N      0.762040000000     0.625560000000     0.838500000000    -0.24132    
N25      N      0.758870000000     0.819330000000     0.042480000000    -0.23601    
N26      N      0.978240000000     0.869750000000     0.093780000000    -0.233896   
N27      N      0.858630000000     0.469850000000     0.004500000000    -0.242142   
N28      N      0.868370000000     0.219560000000     0.124390000000    -0.243602   
N29      N      0.379740000000     0.708840000000     0.083920000000    -0.240686   
N30      N      0.354950000000     0.986040000000     0.092810000000    -0.241662   
N31      N      0.506380000000     0.361250000000     0.114500000000    -0.243813   
N32      N      0.228080000000     0.331890000000     0.038690000000    -0.243765   
N33      N      0.691150000000     0.166800000000     0.877600000000    -0.242771   
N34      N      0.915970000000     0.010840000000     0.922210000000    -0.240342   
N35      N      0.366990000000     0.011890000000     0.765040000000    -0.237999   
N36      N      0.249430000000     0.177190000000     0.871330000000    -0.240692   
N37      N      0.317260000000     0.172860000000     0.238620000000    -0.242199   
N38      N      0.458990000000     0.083430000000     0.409940000000    -0.238191   
N39      N      0.944100000000     0.066100000000     0.292540000000    -0.240355   
N40      N      0.824150000000     0.165840000000     0.523350000000    -0.24279    
N41      N      0.195440000000     0.310820000000     0.683350000000    -0.241124   
N42      N      0.022120000000     0.267630000000     0.897280000000    -0.243037   
N43      N      0.150410000000     0.918430000000     0.897440000000    -0.236643   
N44      N      0.198460000000     0.674310000000     0.769990000000    -0.236376   
N45      N      0.205320000000     0.948330000000     0.278560000000    -0.239042   
N46      N      0.076420000000     0.740940000000     0.410690000000    -0.240405   
N47      N      0.976200000000     0.384350000000     0.393470000000    -0.242297   
N48      N      0.066980000000     0.291220000000     0.258760000000    -0.245276   
O1       O      0.070170000000     0.260890000000     0.160910000000    -0.670857   
O2       O      0.173410000000     0.956360000000     0.178120000000    -0.559304   
O3       O      0.041970000000     0.093930000000     0.256370000000    -0.609147   
O4       O      0.214730000000     0.138870000000     0.230550000000    -0.621228   
O5       O      0.278710000000     0.155040000000     0.143990000000    -0.642618   
O6       O      0.961580000000     0.058410000000     0.191210000000    -0.5885     
O7       O      0.169090000000     0.038660000000     0.246450000000    -0.632605   
O8       O      0.093490000000     0.192790000000     0.240380000000    -0.630366   
O9       O      0.192430000000     0.068340000000     0.135370000000    -1.47282    
O10      O      0.039540000000     0.143030000000     0.148800000000    -1.49617    
O11      O      0.072240000000     0.020080000000     0.156690000000    -1.04003    
O12      O      0.156950000000     0.182050000000     0.133620000000    -1.65613    
O13      O      0.152280000000     0.942140000000     0.000660000000    -0.552182   
O14      O      0.043370000000     0.249480000000     0.996480000000    -0.650178   
O15      O      0.974490000000     0.972150000000     0.099240000000    -0.583481   
O16      O      0.296460000000     0.069930000000     0.073230000000    -0.624687   
O17      O      0.238210000000     0.229860000000     0.052270000000    -0.630732   
O18      O      0.923330000000     0.132380000000     0.110510000000    -0.587011   
O19      O      0.013030000000     0.050440000000     0.934610000000    -0.593923   
O20      O      0.163600000000     0.132880000000     0.911840000000    -0.596175   
O21      O      0.944030000000     0.040960000000     0.018340000000    -0.564057   
O22      O      0.251620000000     0.154260000000     0.973590000000    -0.612206   
O23      O      0.072470000000     0.921730000000     0.095530000000    -0.556372   
O24      O      0.974070000000     0.226800000000     0.104680000000    -0.623728   
O25      O      0.139110000000     0.277860000000     0.059100000000    -0.634767   
O26      O      0.247390000000     0.975690000000     0.089950000000    -0.579839   
O27      O      0.121430000000     0.012170000000     0.924940000000    -0.577107   
O28      O      0.058230000000     0.173170000000     0.923000000000    -0.565992   
O29      O      0.139750000000     0.170900000000     0.015960000000    -1.50624    
O30      O      0.064320000000     0.024090000000     0.036080000000    -1.38933    
O31      O      0.012700000000     0.132860000000     0.023790000000    -1.05739    
O32      O      0.182830000000     0.050410000000     0.009710000000    -1.07355    
O33      O      0.046390000000     0.389840000000     0.470050000000    -0.652503   
O34      O      0.107270000000     0.702280000000     0.503940000000    -0.560031   
O35      O      0.963540000000     0.555350000000     0.452310000000    -0.622037   
O36      O      0.124820000000     0.559740000000     0.383670000000    -0.655205   
O37      O      0.228820000000     0.550430000000     0.420800000000    -0.633465   
O38      O      0.923660000000     0.548730000000     0.552420000000    -0.567084   
O39      O      0.060650000000     0.641870000000     0.427650000000    -0.646      
O40      O      0.022060000000     0.476710000000     0.412930000000    -0.626158   
O41      O      0.150530000000     0.596320000000     0.495860000000    -1.47396    
O42      O      0.027150000000     0.486430000000     0.527060000000    -1.52009    
O43      O      0.030910000000     0.610930000000     0.548440000000    -1.0524     
O44      O      0.137860000000     0.480000000000     0.472340000000    -1.65451    
O45      O      0.160880000000     0.671140000000     0.671510000000    -0.559384   
O46      O      0.148120000000     0.356220000000     0.603300000000    -0.637009   
O47      O      0.971530000000     0.619260000000     0.648220000000    -0.578283   
O48      O      0.275490000000     0.609150000000     0.506840000000    -0.615927   
O49      O      0.255290000000     0.439930000000     0.482690000000    -0.625328   
O50      O      0.947230000000     0.452920000000     0.606920000000    -0.571272   
O51      O      0.100670000000     0.501720000000     0.745730000000    -0.581339   
O52      O      0.261250000000     0.490810000000     0.672640000000    -0.580438   
O53      O      0.997190000000     0.517790000000     0.709540000000    -0.574897   
O54      O      0.301120000000     0.499300000000     0.572550000000    -0.608464   
O55      O      0.047840000000     0.692950000000     0.623290000000    -0.556139   
O56      O      0.012820000000     0.375460000000     0.569290000000    -0.623235   
O57      O      0.173020000000     0.370390000000     0.500220000000    -0.643911   
O58      O      0.215490000000     0.684370000000     0.556260000000    -0.566698   
O59      O      0.186600000000     0.582240000000     0.725570000000    -0.576568   
O60      O      0.177870000000     0.412990000000     0.689320000000    -0.571269   
O61      O      0.186980000000     0.460100000000     0.581970000000    -1.49389    
O62      O      0.089220000000     0.578160000000     0.650430000000    -1.369      
O63      O      0.070410000000     0.459090000000     0.643990000000    -1.07112    
O64      O      0.207010000000     0.581320000000     0.610690000000    -1.03618    
O65      O      0.769370000000     0.149990000000     0.610840000000    -0.641616   
O66      O      0.459400000000     0.071540000000     0.512070000000    -0.584369   
O67      O      0.662030000000     0.034220000000     0.484860000000    -0.588346   
O68      O      0.610330000000     0.201840000000     0.491570000000    -0.619153   
O69      O      0.565410000000     0.264290000000     0.567360000000    -0.650495   
O70      O      0.667030000000     0.957020000000     0.558890000000    -0.587492   
O71      O      0.550140000000     0.108030000000     0.461990000000    -0.598926   
O72      O      0.720230000000     0.136940000000     0.515110000000    -0.626446   
O73      O      0.534280000000     0.150080000000     0.570750000000    -1.47091    
O74      O      0.679900000000     0.067250000000     0.602200000000    -1.45531    
O75      O      0.562130000000     0.026020000000     0.561600000000    -1.05661    
O76      O      0.648200000000     0.182140000000     0.605180000000    -1.62445    
O77      O      0.411760000000     0.047170000000     0.676790000000    -0.569592   
O78      O      0.711060000000     0.146360000000     0.776270000000    -0.598198   
O79      O      0.550420000000     0.924840000000     0.614710000000    -0.55452    
O80      O      0.463960000000     0.237260000000     0.619940000000    -0.644923   
O81      O      0.622340000000     0.275100000000     0.683280000000    -0.646191   
O82      O      0.720510000000     0.969140000000     0.656970000000    -0.569616   
O83      O      0.582690000000     0.006640000000     0.799030000000    -0.583948   
O84      O      0.510800000000     0.160370000000     0.799450000000    -0.586136   
O85      O      0.616350000000     0.938980000000     0.722850000000    -0.570597   
O86      O      0.522440000000     0.244920000000     0.735350000000    -0.610924   
O87      O      0.458150000000     0.980100000000     0.591520000000    -0.577039   
O88      O      0.772010000000     0.060250000000     0.681760000000    -0.611837   
O89      O      0.717490000000     0.222670000000     0.700450000000    -0.632652   
O90      O      0.414570000000     0.147400000000     0.587730000000    -0.56345    
O91      O      0.468240000000     0.042870000000     0.769260000000    -0.592602   
O92      O      0.612940000000     0.125490000000     0.822170000000    -0.590279   
O93      O      0.611440000000     0.165020000000     0.718100000000    -1.51352    
O94      O      0.533220000000     0.023190000000     0.678680000000    -1.37659    
O95      O      0.648840000000     0.045040000000     0.724300000000    -1.09855    
O96      O      0.486000000000     0.134070000000     0.689500000000    -1.05645    
O97      O      0.594230000000     0.414730000000     0.089020000000    -0.637603   
O98      O      0.487280000000     0.718230000000     0.075000000000    -0.563932   
O99      O      0.490970000000     0.541090000000     0.186760000000    -0.625228   
O100     O      0.449190000000     0.541770000000     0.018180000000    -0.633064   
O101     O      0.505360000000     0.559470000000     0.927080000000    -0.631628   
O102     O      0.579300000000     0.572640000000     0.243730000000    -0.585494   
O103     O      0.439050000000     0.624090000000     0.094420000000    -0.629317   
O104     O      0.497180000000     0.463930000000     0.106130000000    -0.640374   
O105     O      0.536820000000     0.625570000000     0.022230000000    -1.50954    
O106     O      0.599750000000     0.523210000000     0.136050000000    -1.4852     
O107     O      0.558530000000     0.643860000000     0.146150000000    -1.05476    
O108     O      0.570790000000     0.511650000000     0.019330000000    -1.65715    
O109     O      0.663190000000     0.770300000000     0.055730000000    -0.549612   
O110     O      0.755360000000     0.464110000000     0.034370000000    -0.621391   
O111     O      0.637830000000     0.690370000000     0.221200000000    -0.545915   
O112     O      0.543670000000     0.653240000000     0.911410000000    -0.636063   
O113     O      0.623890000000     0.504380000000     0.905960000000    -0.650604   
O114     O      0.679020000000     0.517540000000     0.224650000000    -0.55988    
O115     O      0.798840000000     0.645360000000     0.114640000000    -0.559476   
O116     O      0.761180000000     0.628280000000     0.943070000000    -0.569684   
O117     O      0.741810000000     0.630030000000     0.205780000000    -0.582123   
O118     O      0.669830000000     0.604750000000     0.886680000000    -0.634135   
O119     O      0.591510000000     0.753350000000     0.146690000000    -0.588624   
O120     O      0.690560000000     0.442620000000     0.148860000000    -0.632058   
O121     O      0.658630000000     0.435100000000     0.980220000000    -0.631704   
O122     O      0.543540000000     0.734270000000     0.981060000000    -0.570384   
O123     O      0.756800000000     0.718620000000     0.029580000000    -0.592116   
O124     O      0.806080000000     0.557810000000     0.021550000000    -0.582159   
O125     O      0.686230000000     0.549380000000     0.994000000000    -1.49444    
O126     O      0.675270000000     0.668390000000     0.108860000000    -1.37694    
O127     O      0.724470000000     0.558900000000     0.116660000000    -1.05775    
O128     O      0.654630000000     0.673480000000     0.989510000000    -1.05548    


