data_structure

_audit_creation_method RASPA-1.0
_audit_creation_date 2023-5-19
_audit_author_name 'Poobodin Mano'

_cell_length_a    26.8008
_cell_length_b    26.7745
_cell_length_c    26.7811
_cell_angle_alpha 90
_cell_angle_beta  90
_cell_angle_gamma 90
_cell_volume      19217.5

_symmetry_cell_setting          triclinic
_symmetry_space_group_name_Hall 'P 1'
_symmetry_space_group_name_H-M  'P 1'
_symmetry_Int_Tables_number     1

_symmetry_equiv_pos_as_xyz 'x,y,z'

loop_
_atom_site_label
_atom_site_type_symbol
_atom_site_fract_x
_atom_site_fract_y
_atom_site_fract_z
_atom_site_charge
C1       C      0.001500000000     0.125800000000     0.127010000000     0.502333   
C2       C      0.013280000000     0.886810000000     0.126980000000     0.508575   
C3       C      0.886280000000     0.011960000000     0.127900000000     0.506792   
C4       C      0.125400000000     0.003360000000     0.126180000000     0.505304   
C5       C      0.001320000000     0.887270000000     0.887050000000     0.496311   
C6       C      0.013830000000     0.126990000000     0.887720000000     0.509036   
C7       C      0.885040000000     0.887590000000     0.005110000000     0.498069   
C8       C      0.124840000000     0.886370000000     0.012100000000     0.509454   
C9       C      0.125400000000     0.125840000000     0.004010000000     0.504459   
C10      C      0.886800000000     0.127820000000     0.012880000000     0.509676   
C11      C      0.885560000000     0.006350000000     0.887620000000     0.499098   
C12      C      0.125800000000     0.012230000000     0.887500000000     0.51067    
C13      C      0.001480000000     0.387030000000     0.387530000000     0.503153   
C14      C      0.013360000000     0.626010000000     0.386780000000     0.509388   
C15      C      0.886380000000     0.500670000000     0.386360000000     0.509738   
C16      C      0.125330000000     0.509370000000     0.387810000000     0.507006   
C17      C      0.001560000000     0.626310000000     0.626730000000     0.496412   
C18      C      0.013870000000     0.386580000000     0.626820000000     0.509329   
C19      C      0.885360000000     0.625760000000     0.508130000000     0.499857   
C20      C      0.125160000000     0.626630000000     0.501060000000     0.510701   
C21      C      0.125310000000     0.387350000000     0.510030000000     0.507416   
C22      C      0.886730000000     0.385350000000     0.501220000000     0.510083   
C23      C      0.885560000000     0.507320000000     0.626440000000     0.500291   
C24      C      0.125950000000     0.501490000000     0.626710000000     0.51128    
C25      C      0.625000000000     0.003480000000     0.387780000000     0.505074   
C26      C      0.386380000000     0.012150000000     0.386120000000     0.508912   
C27      C      0.512760000000     0.886710000000     0.387200000000     0.510118   
C28      C      0.500560000000     0.125880000000     0.387450000000     0.508664   
C29      C      0.385600000000     0.006040000000     0.626570000000     0.499329   
C30      C      0.625350000000     0.012610000000     0.626980000000     0.508732   
C31      C      0.385450000000     0.887170000000     0.508330000000     0.500164   
C32      C      0.386090000000     0.127260000000     0.501120000000     0.509924   
C33      C      0.625290000000     0.125740000000     0.509660000000     0.507117   
C34      C      0.625650000000     0.886970000000     0.501740000000     0.510999   
C35      C      0.500990000000     0.887170000000     0.626950000000     0.500026   
C36      C      0.512990000000     0.127660000000     0.626040000000     0.511397   
C37      C      0.386330000000     0.386550000000     0.010120000000     0.504708   
C38      C      0.384410000000     0.625430000000     0.002270000000     0.510324   
C39      C      0.385470000000     0.500370000000     0.127100000000     0.509252   
C40      C      0.385980000000     0.509050000000     0.887740000000     0.506679   
C41      C      0.624590000000     0.626830000000     0.008930000000     0.49892    
C42      C      0.625540000000     0.386850000000     0.001650000000     0.506942   
C43      C      0.509230000000     0.626040000000     0.127010000000     0.500117   
C44      C      0.497500000000     0.626450000000     0.887280000000     0.509768   
C45      C      0.510950000000     0.387280000000     0.887540000000     0.508149   
C46      C      0.498460000000     0.385550000000     0.126100000000     0.510976   
C47      C      0.625370000000     0.507790000000     0.126600000000     0.500415   
C48      C      0.624490000000     0.501270000000     0.886260000000     0.511532   
C49      C      0.483380000000     0.325200000000     0.248040000000    -0.0947903  
C50      C      0.494040000000     0.275120000000     0.236690000000     0.0373537  
C51      C      0.504850000000     0.263080000000     0.186830000000    -0.0959071  
C52      C      0.504840000000     0.300190000000     0.150220000000     0.0861757  
C53      C      0.485200000000     0.361610000000     0.210740000000     0.0844118  
C54      C      0.494720000000     0.235970000000     0.276540000000     0.0365886  
C55      C      0.507240000000     0.248010000000     0.326000000000    -0.0956723  
C56      C      0.508080000000     0.210980000000     0.362690000000     0.0823034  
C57      C      0.486280000000     0.149570000000     0.302900000000     0.083033   
C58      C      0.483600000000     0.185910000000     0.265590000000    -0.095378   
C59      C      0.528620000000     0.825600000000     0.265690000000    -0.0948319  
C60      C      0.516550000000     0.775850000000     0.277060000000     0.0378842  
C61      C      0.504520000000     0.764260000000     0.326710000000    -0.094814   
C62      C      0.504700000000     0.801490000000     0.363170000000     0.0850437  
C63      C      0.527080000000     0.862190000000     0.302850000000     0.085572   
C64      C      0.515650000000     0.736560000000     0.237410000000     0.0373059  
C65      C      0.503520000000     0.748530000000     0.187870000000    -0.0942855  
C66      C      0.502340000000     0.711320000000     0.151380000000     0.0843606  
C67      C      0.523190000000     0.649950000000     0.211560000000     0.0838185  
C68      C      0.526070000000     0.686430000000     0.248710000000    -0.0940218  
C69      C      0.484150000000     0.826820000000     0.748710000000    -0.0937031  
C70      C      0.494450000000     0.776660000000     0.737430000000     0.0372964  
C71      C      0.506470000000     0.764660000000     0.687860000000    -0.0941688  
C72      C      0.507660000000     0.801870000000     0.651350000000     0.0844104  
C73      C      0.487060000000     0.863300000000     0.711540000000     0.0838114  
C74      C      0.493540000000     0.737350000000     0.777110000000     0.0379002  
C75      C      0.505450000000     0.748960000000     0.826800000000    -0.0946086  
C76      C      0.505300000000     0.711720000000     0.863260000000     0.084953   
C77      C      0.483200000000     0.650970000000     0.802920000000     0.0855857  
C78      C      0.481610000000     0.687550000000     0.765750000000    -0.0949154  
C79      C      0.506910000000     0.250120000000     0.686840000000    -0.0957391  
C80      C      0.517640000000     0.238040000000     0.736710000000     0.0376304  
C81      C      0.528180000000     0.187930000000     0.748030000000    -0.094598   
C82      C      0.526300000000     0.151540000000     0.710700000000     0.0845072  
C83      C      0.506870000000     0.213030000000     0.650200000000     0.0865508  
C84      C      0.516990000000     0.277190000000     0.776610000000     0.036776   
C85      C      0.528010000000     0.327280000000     0.765670000000    -0.0951345  
C86      C      0.525280000000     0.363610000000     0.803000000000     0.0833908  
C87      C      0.503690000000     0.302150000000     0.862790000000     0.0823276  
C88      C      0.504560000000     0.265120000000     0.826090000000    -0.0953282  
C89      C      0.686910000000     0.247810000000     0.517710000000    -0.0950577  
C90      C      0.736330000000     0.235720000000     0.505080000000     0.0367114  
C91      C      0.747360000000     0.185530000000     0.494750000000    -0.0956393  
C92      C      0.710110000000     0.149230000000     0.497660000000     0.0820904  
C93      C      0.650220000000     0.210730000000     0.518760000000     0.0827844  
C94      C      0.776040000000     0.274970000000     0.502900000000     0.0375165  
C95      C      0.764460000000     0.324710000000     0.490990000000    -0.0946201  
C96      C      0.801840000000     0.361090000000     0.490590000000     0.0844657  
C97      C      0.862750000000     0.300240000000     0.510600000000     0.0863527  
C98      C      0.826130000000     0.263240000000     0.512830000000    -0.0954231  
C99      C      0.824890000000     0.747480000000     0.492860000000    -0.0943287  
C100     C      0.774950000000     0.736310000000     0.503960000000     0.0372645  
C101     C      0.763170000000     0.686850000000     0.516850000000    -0.0937386  
C102     C      0.800370000000     0.650270000000     0.517630000000     0.0836409  
C103     C      0.861320000000     0.710370000000     0.495530000000     0.0847634  
C104     C      0.735690000000     0.776000000000     0.502400000000     0.0381435  
C105     C      0.747570000000     0.826100000000     0.512260000000    -0.0955205  
C106     C      0.710640000000     0.862780000000     0.510480000000     0.0869991  
C107     C      0.649530000000     0.801870000000     0.491230000000     0.0848958  
C108     C      0.685830000000     0.764420000000     0.491180000000    -0.0945176  
C109     C      0.325030000000     0.249420000000     0.490310000000    -0.0951447  
C110     C      0.275580000000     0.237770000000     0.503150000000     0.0371708  
C111     C      0.264240000000     0.187800000000     0.514150000000    -0.0951214  
C112     C      0.301300000000     0.151290000000     0.511900000000     0.084643   
C113     C      0.361530000000     0.212120000000     0.489810000000     0.0850738  
C114     C      0.236140000000     0.277230000000     0.505230000000     0.0365758  
C115     C      0.247880000000     0.326820000000     0.517540000000    -0.0952924  
C116     C      0.210500000000     0.363200000000     0.518770000000     0.082651   
C117     C      0.149470000000     0.302640000000     0.498190000000     0.0818743  
C118     C      0.186050000000     0.265680000000     0.495220000000    -0.0959307  
C119     C      0.185490000000     0.748800000000     0.513210000000    -0.0948151  
C120     C      0.235360000000     0.737430000000     0.501960000000     0.0380022  
C121     C      0.246930000000     0.687930000000     0.489100000000    -0.0950809  
C122     C      0.209730000000     0.651390000000     0.488970000000     0.0858238  
C123     C      0.149030000000     0.711640000000     0.511350000000     0.0852264  
C124     C      0.274870000000     0.776800000000     0.503890000000     0.037226   
C125     C      0.263520000000     0.826970000000     0.493810000000    -0.0941009  
C126     C      0.300650000000     0.863420000000     0.496570000000     0.08451    
C127     C      0.360900000000     0.802070000000     0.517160000000     0.0838755  
C128     C      0.324390000000     0.764850000000     0.516120000000    -0.0938358  
C129     C      0.825350000000     0.489310000000     0.264280000000    -0.0946511  
C130     C      0.775760000000     0.501540000000     0.276010000000     0.037801   
C131     C      0.764340000000     0.512390000000     0.325970000000    -0.0949943  
C132     C      0.801470000000     0.510610000000     0.362410000000     0.0852113  
C133     C      0.861900000000     0.489280000000     0.301510000000     0.0854381  
C134     C      0.736270000000     0.503250000000     0.236600000000     0.0372337  
C135     C      0.747870000000     0.515920000000     0.187080000000    -0.0940524  
C136     C      0.710470000000     0.516960000000     0.150760000000     0.0837606  
C137     C      0.649660000000     0.495420000000     0.211200000000     0.0843299  
C138     C      0.686300000000     0.492630000000     0.248120000000    -0.0944314  
C139     C      0.247220000000     0.494930000000     0.327530000000    -0.0957951  
C140     C      0.235760000000     0.504570000000     0.277310000000     0.0366865  
C141     C      0.186200000000     0.516660000000     0.265370000000    -0.0955551  
C142     C      0.149760000000     0.517920000000     0.302670000000     0.0826894  
C143     C      0.210170000000     0.497930000000     0.364030000000     0.0820111  
C144     C      0.275220000000     0.502320000000     0.237860000000     0.0371624  
C145     C      0.325110000000     0.513530000000     0.249120000000    -0.0949372  
C146     C      0.361560000000     0.511300000000     0.211990000000     0.0846954  
C147     C      0.300810000000     0.488660000000     0.151890000000     0.0847927  
C148     C      0.263600000000     0.489160000000     0.188450000000    -0.0950971  
C149     C      0.247910000000     0.512850000000     0.687410000000    -0.095756   
C150     C      0.236170000000     0.503030000000     0.737540000000     0.0376654  
C151     C      0.186380000000     0.491560000000     0.749200000000    -0.094631   
C152     C      0.150010000000     0.491320000000     0.711800000000     0.0844472  
C153     C      0.210930000000     0.510750000000     0.650790000000     0.0867678  
C154     C      0.275520000000     0.504880000000     0.777170000000     0.0365977  
C155     C      0.325550000000     0.494170000000     0.765940000000    -0.0955096  
C156     C      0.362010000000     0.496920000000     0.803030000000     0.082066   
C157     C      0.300970000000     0.518460000000     0.863220000000     0.0827571  
C158     C      0.263740000000     0.517570000000     0.826680000000    -0.0948417  
C159     C      0.685050000000     0.511590000000     0.764060000000    -0.095741   
C160     C      0.735100000000     0.501650000000     0.775880000000     0.0382036  
C161     C      0.746720000000     0.490340000000     0.825740000000    -0.0944736  
C162     C      0.709390000000     0.490470000000     0.862140000000     0.0849308  
C163     C      0.648470000000     0.509910000000     0.801110000000     0.0868306  
C164     C      0.774750000000     0.503300000000     0.736590000000     0.0371896  
C165     C      0.763680000000     0.492270000000     0.686560000000    -0.0941573  
C166     C      0.800870000000     0.494880000000     0.650180000000     0.0845671  
C167     C      0.860750000000     0.516960000000     0.711350000000     0.0838552  
C168     C      0.824130000000     0.516200000000     0.748470000000    -0.0935923  
C169     C      0.824140000000     0.765680000000     0.017440000000    -0.0939581  
C170     C      0.774230000000     0.777280000000     0.006570000000     0.0344953  
C171     C      0.762660000000     0.827070000000     0.994850000000    -0.0902269  
C172     C      0.799980000000     0.863530000000     0.994960000000     0.0857804  
C173     C      0.860710000000     0.802740000000     0.015770000000     0.0835949  
C174     C      0.734770000000     0.737760000000     0.007420000000     0.0345716  
C175     C      0.746340000000     0.687840000000     0.996340000000    -0.0908781  
C176     C      0.709320000000     0.651210000000     0.998030000000     0.0866468  
C177     C      0.648670000000     0.711920000000     0.019280000000     0.0827478  
C178     C      0.685080000000     0.749290000000     0.019380000000    -0.0935383  
C179     C      0.764440000000     0.188400000000     0.020900000000    -0.0926586  
C180     C      0.776240000000     0.238010000000     0.008790000000     0.0321986  
C181     C      0.826450000000     0.249760000000     0.999620000000    -0.0850431  
C182     C      0.863030000000     0.212840000000     0.002750000000     0.0770402  
C183     C      0.801810000000     0.152080000000     0.022250000000     0.0829986  
C184     C      0.736650000000     0.277190000000     0.005860000000     0.035863   
C185     C      0.687540000000     0.265160000000     0.992070000000    -0.0919888  
C186     C      0.650830000000     0.302190000000     0.990810000000     0.0875168  
C187     C      0.710280000000     0.363490000000     0.013800000000     0.0845497  
C188     C      0.747500000000     0.327250000000     0.016880000000    -0.0952844  
C189     C      0.323660000000     0.747830000000     0.994280000000    -0.0911154  
C190     C      0.273990000000     0.735850000000     0.005800000000     0.0351345  
C191     C      0.262320000000     0.685530000000     0.014720000000    -0.0954508  
C192     C      0.299360000000     0.649030000000     0.011870000000     0.0860386  
C193     C      0.360080000000     0.710530000000     0.993210000000     0.0870162  
C194     C      0.234670000000     0.775360000000     0.008450000000     0.0349198  
C195     C      0.246450000000     0.824520000000     0.022420000000    -0.0945416  
C196     C      0.209360000000     0.861170000000     0.023450000000     0.0849508  
C197     C      0.148430000000     0.801590000000     0.999890000000     0.0876089  
C198     C      0.184760000000     0.764410000000     0.997010000000    -0.0914565  
C199     C      0.325670000000     0.263980000000     0.019330000000    -0.0948004  
C200     C      0.275920000000     0.275680000000     0.007680000000     0.0332758  
C201     C      0.264400000000     0.325790000000     0.997390000000    -0.0921272  
C202     C      0.301470000000     0.362360000000     0.999470000000     0.0837025  
C203     C      0.362140000000     0.301330000000     0.019630000000     0.0811679  
C204     C      0.236370000000     0.236160000000     0.006350000000     0.0333338  
C205     C      0.247880000000     0.186440000000     0.994220000000    -0.0917603  
C206     C      0.210490000000     0.150000000000     0.993950000000     0.0843384  
C207     C      0.149790000000     0.210660000000     0.015080000000     0.0805209  
C208     C      0.186410000000     0.247690000000     0.017140000000    -0.0953749  
C209     C      0.824650000000     0.998560000000     0.765250000000    -0.0898561  
C210     C      0.775110000000     0.010720000000     0.777130000000     0.0331061  
C211     C      0.763700000000     0.020910000000     0.827260000000    -0.0930095  
C212     C      0.800790000000     0.018220000000     0.863760000000     0.0834011  
C213     C      0.861110000000     0.997610000000     0.802510000000     0.0858449  
C214     C      0.735610000000     0.012390000000     0.737720000000     0.0395861  
C215     C      0.747160000000     0.025020000000     0.688160000000    -0.0959419  
C216     C      0.709960000000     0.024860000000     0.651610000000     0.0854216  
C217     C      0.649320000000     0.002610000000     0.711970000000     0.0824637  
C218     C      0.685780000000     0.001040000000     0.749130000000    -0.0982625  
C219     C      0.325120000000     0.021500000000     0.748230000000    -0.0934262  
C220     C      0.275200000000     0.010280000000     0.737060000000     0.032859   
C221     C      0.263460000000     0.997240000000     0.687650000000    -0.0899051  
C222     C      0.300660000000     0.996430000000     0.651110000000     0.0852983  
C223     C      0.361560000000     0.018830000000     0.711150000000     0.0833938  
C224     C      0.235920000000     0.011830000000     0.776690000000     0.0397415  
C225     C      0.247770000000     0.001850000000     0.826760000000    -0.0991899  
C226     C      0.210800000000     0.003530000000     0.863380000000     0.0845964  
C227     C      0.149740000000     0.022960000000     0.802470000000     0.0847777  
C228     C      0.186090000000     0.023090000000     0.765070000000    -0.0957859  
C229     C      0.186810000000     0.995010000000     0.248280000000    -0.0914712  
C230     C      0.236210000000     0.007810000000     0.236330000000     0.0323436  
C231     C      0.247330000000     0.018260000000     0.186190000000    -0.0947258  
C232     C      0.210170000000     0.015320000000     0.149810000000     0.0807463  
C233     C      0.150210000000     0.993940000000     0.211130000000     0.0843583  
C234     C      0.275810000000     0.010060000000     0.275670000000     0.03899    
C235     C      0.264110000000     0.021910000000     0.325390000000    -0.0957729  
C236     C      0.301440000000     0.022430000000     0.361820000000     0.0841117  
C237     C      0.362490000000     0.002600000000     0.301050000000     0.0838028  
C238     C      0.325930000000     0.000260000000     0.264010000000    -0.0990301  
C239     C      0.747630000000     0.995620000000     0.327340000000    -0.0922451  
C240     C      0.736010000000     0.007930000000     0.277720000000     0.0350573  
C241     C      0.685930000000     0.018040000000     0.266130000000    -0.0957407  
C242     C      0.649280000000     0.015170000000     0.303050000000     0.0810318  
C243     C      0.710190000000     0.994510000000     0.363670000000     0.0848948  
C244     C      0.775570000000     0.009920000000     0.238320000000     0.0318701  
C245     C      0.825120000000     0.022330000000     0.250090000000    -0.092488   
C246     C      0.861700000000     0.022750000000     0.212840000000     0.0832816  
C247     C      0.801400000000     0.001440000000     0.151830000000     0.0754395  
C248     C      0.764270000000     0.999250000000     0.188280000000    -0.0846484  
C249     C      0.008710000000     0.326220000000     0.749480000000    -0.0978466  
C250     C      0.021120000000     0.276700000000     0.737720000000     0.0378876  
C251     C      0.032350000000     0.265370000000     0.687780000000    -0.0954156  
C252     C      0.029580000000     0.302430000000     0.651170000000     0.085145   
C253     C      0.007610000000     0.362580000000     0.712180000000     0.082108   
C254     C      0.021060000000     0.237060000000     0.776990000000     0.0378276  
C255     C      0.032270000000     0.248320000000     0.826950000000    -0.0951546  
C256     C      0.029500000000     0.211210000000     0.863520000000     0.0851691  
C257     C      0.007490000000     0.151160000000     0.802430000000     0.0822017  
C258     C      0.008610000000     0.187560000000     0.765180000000    -0.0978449  
C259     C      0.009700000000     0.826450000000     0.764690000000    -0.0972477  
C260     C      0.997960000000     0.776740000000     0.776450000000     0.0403251  
C261     C      0.986660000000     0.765390000000     0.826370000000    -0.0938998  
C262     C      0.988400000000     0.802620000000     0.862860000000     0.0848144  
C263     C      0.009680000000     0.863010000000     0.801870000000     0.0822947  
C264     C      0.998060000000     0.737030000000     0.737140000000     0.0403443  
C265     C      0.986940000000     0.748340000000     0.687170000000    -0.094006   
C266     C      0.988760000000     0.711050000000     0.650720000000     0.0846121  
C267     C      0.009830000000     0.650730000000     0.711850000000     0.082178   
C268     C      0.009770000000     0.687330000000     0.748990000000    -0.0974278  
C269     C      0.007880000000     0.764140000000     0.187410000000    -0.0976075  
C270     C      0.020230000000     0.775940000000     0.236940000000     0.0380132  
C271     C      0.031500000000     0.825890000000     0.248210000000    -0.095364   
C272     C      0.028830000000     0.862460000000     0.211130000000     0.0856394  
C273     C      0.006900000000     0.801420000000     0.150990000000     0.0822098  
C274     C      0.020200000000     0.736690000000     0.276630000000     0.038079   
C275     C      0.007950000000     0.748560000000     0.326160000000    -0.0977096  
C276     C      0.006990000000     0.711330000000     0.362620000000     0.0823938  
C277     C      0.028670000000     0.650170000000     0.302530000000     0.0856083  
C278     C      0.031320000000     0.686690000000     0.265380000000    -0.0955067  
C279     C      0.009660000000     0.325980000000     0.265200000000    -0.0987591  
C280     C      0.998160000000     0.276200000000     0.277030000000     0.039162   
C281     C      0.987200000000     0.264900000000     0.327050000000    -0.095202   
C282     C      0.988950000000     0.302210000000     0.363510000000     0.0833895  
C283     C      0.009630000000     0.362600000000     0.302350000000     0.0794976  
C284     C      0.998130000000     0.236450000000     0.237670000000     0.0391366  
C285     C      0.987150000000     0.247800000000     0.187670000000    -0.0952422  
C286     C      0.988910000000     0.210550000000     0.151170000000     0.0833946  
C287     C      0.009560000000     0.150060000000     0.212250000000     0.0792853  
C288     C      0.009580000000     0.186650000000     0.249460000000    -0.0986993  
Eu1      Eu     0.005290000000     0.005910000000     0.095800000000     3.45788    
Eu2      Eu     0.005010000000     0.917900000000     0.007120000000     3.03065    
Eu3      Eu     0.005480000000     0.095320000000     0.006750000000     3.46392    
Eu4      Eu     0.916710000000     0.007420000000     0.007620000000     3.03269    
Eu5      Eu     0.094060000000     0.005710000000     0.006380000000     3.48879    
Eu6      Eu     0.005570000000     0.007100000000     0.918220000000     3.04603    
Eu7      Eu     0.005340000000     0.507010000000     0.418370000000     3.47392    
Eu8      Eu     0.005240000000     0.595290000000     0.506740000000     3.03477    
Eu9      Eu     0.005430000000     0.417870000000     0.507690000000     3.47563    
Eu10     Eu     0.916790000000     0.505840000000     0.506550000000     3.05631    
Eu11     Eu     0.094140000000     0.507420000000     0.507740000000     3.52084    
Eu12     Eu     0.005670000000     0.506380000000     0.595950000000     3.04283    
Eu13     Eu     0.505060000000     0.005840000000     0.418470000000     3.4736     
Eu14     Eu     0.416680000000     0.007080000000     0.506570000000     3.0337     
Eu15     Eu     0.593930000000     0.005990000000     0.507810000000     3.4779     
Eu16     Eu     0.505480000000     0.917770000000     0.507060000000     3.06457    
Eu17     Eu     0.505050000000     0.095410000000     0.507350000000     3.51247    
Eu18     Eu     0.505500000000     0.007210000000     0.595920000000     3.04318    
Eu19     Eu     0.416870000000     0.506650000000     0.007900000000     3.47649    
Eu20     Eu     0.504770000000     0.595370000000     0.007170000000     3.033      
Eu21     Eu     0.506330000000     0.417830000000     0.007430000000     3.47573    
Eu22     Eu     0.505340000000     0.506030000000     0.096020000000     3.06205    
Eu23     Eu     0.505800000000     0.507310000000     0.918520000000     3.50779    
Eu24     Eu     0.594180000000     0.506680000000     0.006680000000     3.04756    
H1       H      0.959750000000     0.960570000000     0.089990000000    -0.175766   
H2       H      0.078320000000     0.078970000000     0.079770000000     0.412053   
H3       H      0.960080000000     0.089810000000     0.961180000000    -0.172072   
H4       H      0.087590000000     0.960500000000     0.960920000000    -0.18149    
H5       H      0.959800000000     0.552420000000     0.424000000000    -0.176845   
H6       H      0.078260000000     0.433980000000     0.434550000000     0.413153   
H7       H      0.959990000000     0.423520000000     0.553270000000    -0.173291   
H8       H      0.087780000000     0.552840000000     0.553040000000    -0.187745   
H9       H      0.459650000000     0.960350000000     0.424330000000    -0.17462    
H10      H      0.577870000000     0.079120000000     0.434270000000     0.412748   
H11      H      0.587780000000     0.960650000000     0.553290000000    -0.178633   
H12      H      0.459720000000     0.089680000000     0.552920000000    -0.18245    
H13      H      0.422840000000     0.551950000000     0.053310000000    -0.182156   
H14      H      0.433360000000     0.433580000000     0.934410000000     0.412583   
H15      H      0.551540000000     0.423850000000     0.053050000000    -0.177124   
H16      H      0.550950000000     0.553080000000     0.924420000000    -0.18159    
H17      H      0.514440000000     0.225400000000     0.175870000000     0.0499076  
H18      H      0.513860000000     0.288950000000     0.112390000000     0.018586   
H19      H      0.476960000000     0.399770000000     0.221480000000     0.02071    
H20      H      0.473330000000     0.336600000000     0.285470000000     0.0504918  
H21      H      0.517380000000     0.285660000000     0.336580000000     0.0498691  
H22      H      0.518230000000     0.222230000000     0.400230000000     0.0164102  
H23      H      0.477420000000     0.111450000000     0.292490000000     0.0204029  
H24      H      0.472350000000     0.174490000000     0.228500000000     0.0499735  
H25      H      0.493840000000     0.726830000000     0.337590000000     0.0509536  
H26      H      0.494680000000     0.790580000000     0.400840000000     0.0204412  
H27      H      0.536440000000     0.900100000000     0.292150000000     0.0219047  
H28      H      0.539550000000     0.836560000000     0.228370000000     0.0511141  
H29      H      0.493970000000     0.786290000000     0.177090000000     0.0507632  
H30      H      0.492530000000     0.722530000000     0.113740000000     0.0204634  
H31      H      0.531550000000     0.611790000000     0.222210000000     0.0209774  
H32      H      0.536920000000     0.675100000000     0.285940000000     0.0507901  
H33      H      0.515930000000     0.726890000000     0.677060000000     0.0507656  
H34      H      0.517390000000     0.790610000000     0.613700000000     0.0205861  
H35      H      0.478820000000     0.901490000000     0.722190000000     0.0216501  
H36      H      0.473370000000     0.838200000000     0.785950000000     0.0511632  
H37      H      0.516020000000     0.786400000000     0.837710000000     0.0514008  
H38      H      0.515230000000     0.722660000000     0.900950000000     0.0211036  
H39      H      0.473970000000     0.613020000000     0.792200000000     0.021405   
H40      H      0.470760000000     0.676560000000     0.728420000000     0.0509844  
H41      H      0.538190000000     0.176480000000     0.785450000000     0.0508208  
H42      H      0.534440000000     0.113350000000     0.721420000000     0.0207483  
H43      H      0.497900000000     0.224310000000     0.612370000000     0.0189093  
H44      H      0.497400000000     0.287830000000     0.675880000000     0.0502491  
H45      H      0.539210000000     0.338740000000     0.728580000000     0.0505252  
H46      H      0.534060000000     0.401750000000     0.792590000000     0.0208427  
H47      H      0.493600000000     0.290870000000     0.900340000000     0.016901   
H48      H      0.494490000000     0.227450000000     0.836680000000     0.0500438  
H49      H      0.784390000000     0.173980000000     0.483580000000     0.0498894  
H50      H      0.720640000000     0.111090000000     0.489050000000     0.0165006  
H51      H      0.612620000000     0.221970000000     0.528620000000     0.0202875  
H52      H      0.676320000000     0.285580000000     0.527380000000     0.0504691  
H53      H      0.726820000000     0.335840000000     0.481540000000     0.0502394  
H54      H      0.790920000000     0.399000000000     0.481460000000     0.0207893  
H55      H      0.900760000000     0.289220000000     0.519010000000     0.019454   
H56      H      0.837330000000     0.225870000000     0.523340000000     0.0508676  
H57      H      0.725590000000     0.676160000000     0.527010000000     0.0507346  
H58      H      0.789420000000     0.612630000000     0.527780000000     0.0208032  
H59      H      0.899270000000     0.721030000000     0.486400000000     0.0208748  
H60      H      0.836150000000     0.784550000000     0.481360000000     0.0510158  
H61      H      0.785030000000     0.837280000000     0.522350000000     0.0513003  
H62      H      0.721800000000     0.900810000000     0.518750000000     0.0196963  
H63      H      0.611520000000     0.791010000000     0.482560000000     0.0208754  
H64      H      0.674580000000     0.726740000000     0.481900000000     0.0509417  
H65      H      0.227130000000     0.176630000000     0.525470000000     0.0504285  
H66      H      0.290520000000     0.113370000000     0.521140000000     0.0200828  
H67      H      0.399210000000     0.223000000000     0.479880000000     0.0209433  
H68      H      0.335780000000     0.287040000000     0.480180000000     0.0500789  
H69      H      0.285620000000     0.337760000000     0.526860000000     0.0502527  
H70      H      0.221470000000     0.400970000000     0.528400000000     0.0201878  
H71      H      0.111420000000     0.291700000000     0.489850000000     0.0160762  
H72      H      0.174800000000     0.228440000000     0.484290000000     0.0494506  
H73      H      0.284440000000     0.677170000000     0.478710000000     0.0510505  
H74      H      0.220600000000     0.613670000000     0.479030000000     0.0212126  
H75      H      0.111180000000     0.722380000000     0.520800000000     0.0203414  
H76      H      0.174410000000     0.785990000000     0.524470000000     0.0510557  
H77      H      0.226320000000     0.838350000000     0.483000000000     0.0510083  
H78      H      0.289910000000     0.901550000000     0.488190000000     0.0211586  
H79      H      0.398580000000     0.790920000000     0.526760000000     0.0208827  
H80      H      0.335160000000     0.727050000000     0.525540000000     0.0506496  
H81      H      0.727100000000     0.523250000000     0.337180000000     0.0509023  
H82      H      0.790630000000     0.519700000000     0.400340000000     0.0204691  
H83      H      0.899690000000     0.479790000000     0.290590000000     0.021632   
H84      H      0.836170000000     0.479330000000     0.226650000000     0.0510001  
H85      H      0.785500000000     0.525710000000     0.176180000000     0.0507854  
H86      H      0.721340000000     0.526940000000     0.113060000000     0.0206518  
H87      H      0.611690000000     0.486660000000     0.222090000000     0.0204133  
H88      H      0.675190000000     0.481410000000     0.285310000000     0.0505888  
H89      H      0.175330000000     0.525770000000     0.227540000000     0.0499049  
H90      H      0.112030000000     0.527380000000     0.291530000000     0.0193864  
H91      H      0.220990000000     0.489840000000     0.402200000000     0.0165356  
H92      H      0.284440000000     0.484240000000     0.338940000000     0.0498613  
H93      H      0.336250000000     0.525040000000     0.286210000000     0.0507945  
H94      H      0.399420000000     0.520720000000     0.222690000000     0.0203567  
H95      H      0.289930000000     0.478520000000     0.114240000000     0.0206124  
H96      H      0.226050000000     0.478810000000     0.177780000000     0.0497013  
H97      H      0.175230000000     0.482300000000     0.786910000000     0.05024    
H98      H      0.112070000000     0.482460000000     0.722730000000     0.0205154  
H99      H      0.222000000000     0.519010000000     0.612730000000     0.0189924  
H100     H      0.285290000000     0.523120000000     0.676140000000     0.0507849  
H101     H      0.336860000000     0.482860000000     0.728840000000     0.0498701  
H102     H      0.400010000000     0.488080000000     0.792320000000     0.0164137  
H103     H      0.289970000000     0.528410000000     0.900890000000     0.0209227  
H104     H      0.226110000000     0.527480000000     0.837430000000     0.0506223  
H105     H      0.784360000000     0.480950000000     0.836920000000     0.0514451  
H106     H      0.720310000000     0.481750000000     0.900140000000     0.0215207  
H107     H      0.610470000000     0.518270000000     0.790020000000     0.0190769  
H108     H      0.673850000000     0.521680000000     0.726590000000     0.0509174  
H109     H      0.726660000000     0.480830000000     0.675220000000     0.0507196  
H110     H      0.790330000000     0.485800000000     0.612160000000     0.0206508  
H111     H      0.898320000000     0.527120000000     0.722430000000     0.0214482  
H112     H      0.834730000000     0.526390000000     0.786100000000     0.0511059  
H113     H      0.725110000000     0.838120000000     0.984940000000     0.0512898  
H114     H      0.789140000000     0.901420000000     0.985680000000     0.0220309  
H115     H      0.898610000000     0.791750000000     0.024670000000     0.0205959  
H116     H      0.835240000000     0.728290000000     0.028030000000     0.050061   
H117     H      0.783640000000     0.676770000000     0.985580000000     0.0512754  
H118     H      0.720270000000     0.613300000000     0.988980000000     0.0212512  
H119     H      0.610850000000     0.722730000000     0.028770000000     0.0208967  
H120     H      0.674070000000     0.786830000000     0.029470000000     0.0501055  
H121     H      0.837770000000     0.287080000000     0.989020000000     0.0497623  
H122     H      0.901160000000     0.223820000000     0.994860000000     0.0242327  
H123     H      0.790770000000     0.114230000000     0.031470000000     0.0205394  
H124     H      0.726620000000     0.177360000000     0.029770000000     0.0493107  
H125     H      0.677230000000     0.227460000000     0.981810000000     0.0512056  
H126     H      0.613400000000     0.291050000000     0.980230000000     0.0211899  
H127     H      0.720630000000     0.401500000000     0.023130000000     0.0203967  
H128     H      0.784320000000     0.338690000000     0.028870000000     0.0503724  
H129     H      0.224970000000     0.674050000000     0.024890000000     0.0500754  
H130     H      0.288400000000     0.610810000000     0.019520000000     0.0187892  
H131     H      0.397950000000     0.721710000000     0.984400000000     0.0214489  
H132     H      0.334680000000     0.785740000000     0.985630000000     0.0513667  
H133     H      0.284000000000     0.834920000000     0.033000000000     0.0504866  
H134     H      0.220340000000     0.898630000000     0.034220000000     0.021535   
H135     H      0.110530000000     0.791180000000     0.990260000000     0.0209303  
H136     H      0.173520000000     0.727550000000     0.984880000000     0.0511994  
H137     H      0.227090000000     0.337070000000     0.986890000000     0.0499256  
H138     H      0.290520000000     0.400410000000     0.990980000000     0.017218   
H139     H      0.399980000000     0.290360000000     0.028810000000     0.0200444  
H140     H      0.336690000000     0.226290000000     0.028850000000     0.0487902  
H141     H      0.285430000000     0.175410000000     0.984320000000     0.0499923  
H142     H      0.221320000000     0.112170000000     0.984410000000     0.0207095  
H143     H      0.111880000000     0.221630000000     0.023960000000     0.0159532  
H144     H      0.175290000000     0.284980000000     0.028000000000     0.0485965  
H145     H      0.726480000000     0.031700000000     0.838580000000     0.050158   
H146     H      0.790010000000     0.026630000000     0.901860000000     0.0210991  
H147     H      0.898810000000     0.988000000000     0.791400000000     0.0220616  
H148     H      0.835480000000     0.989080000000     0.727500000000     0.0510782  
H149     H      0.784650000000     0.035450000000     0.677360000000     0.050831   
H150     H      0.720790000000     0.034640000000     0.613840000000     0.021073   
H151     H      0.611510000000     0.993120000000     0.722760000000     0.0232916  
H152     H      0.674710000000     0.989920000000     0.786360000000     0.0542225  
H153     H      0.225890000000     0.986970000000     0.676990000000     0.0506628  
H154     H      0.289720000000     0.986140000000     0.613520000000     0.0213436  
H155     H      0.399500000000     0.028030000000     0.721790000000     0.0204708  
H156     H      0.336330000000     0.033080000000     0.785270000000     0.0498832  
H157     H      0.285230000000     0.991740000000     0.837940000000     0.054217   
H158     H      0.221930000000     0.995150000000     0.901390000000     0.0224291  
H159     H      0.111760000000     0.031670000000     0.791600000000     0.0201799  
H160     H      0.174890000000     0.032450000000     0.727400000000     0.0503085  
H161     H      0.284360000000     0.029560000000     0.174750000000     0.0487231  
H162     H      0.220750000000     0.024050000000     0.111720000000     0.0160229  
H163     H      0.112610000000     0.983940000000     0.222260000000     0.0200022  
H164     H      0.176170000000     0.985210000000     0.286000000000     0.0501058  
H165     H      0.226420000000     0.031220000000     0.336450000000     0.0495173  
H166     H      0.290460000000     0.031520000000     0.399710000000     0.0202376  
H167     H      0.400530000000     0.994300000000     0.290060000000     0.0219342  
H168     H      0.337230000000     0.989760000000     0.226670000000     0.0536908  
H169     H      0.674730000000     0.028980000000     0.228890000000     0.0492026  
H170     H      0.611250000000     0.023580000000     0.292080000000     0.016224   
H171     H      0.721100000000     0.984870000000     0.401440000000     0.0210883  
H172     H      0.785310000000     0.986190000000     0.338350000000     0.0511909  
H173     H      0.835900000000     0.032190000000     0.287750000000     0.0493397  
H174     H      0.899440000000     0.032370000000     0.223820000000     0.0216987  
H175     H      0.790610000000     0.992490000000     0.113850000000     0.0247228  
H176     H      0.727100000000     0.988230000000     0.176970000000     0.0492856  
H177     H      0.043500000000     0.228150000000     0.676690000000     0.0503174  
H178     H      0.038330000000     0.291760000000     0.613110000000     0.0210244  
H179     H      0.997340000000     0.400150000000     0.723230000000     0.0235142  
H180     H      0.998660000000     0.337020000000     0.787090000000     0.0541294  
H181     H      0.043430000000     0.285540000000     0.838080000000     0.0504563  
H182     H      0.038240000000     0.221820000000     0.901600000000     0.021623   
H183     H      0.997200000000     0.113610000000     0.791320000000     0.0232515  
H184     H      0.998540000000     0.176810000000     0.727560000000     0.053844   
H185     H      0.975990000000     0.728050000000     0.837540000000     0.0518577  
H186     H      0.979450000000     0.791880000000     0.900850000000     0.0224906  
H187     H      0.019280000000     0.900770000000     0.790830000000     0.0211352  
H188     H      0.019870000000     0.837340000000     0.727130000000     0.0507998  
H189     H      0.976340000000     0.785670000000     0.675930000000     0.0518059  
H190     H      0.979930000000     0.721740000000     0.612690000000     0.0219505  
H191     H      0.019380000000     0.612990000000     0.722980000000     0.0206676  
H192     H      0.019840000000     0.676480000000     0.786580000000     0.0507347  
H193     H      0.042650000000     0.837010000000     0.285420000000     0.0505867  
H194     H      0.037640000000     0.900530000000     0.221770000000     0.0208161  
H195     H      0.996640000000     0.790380000000     0.113420000000     0.0229574  
H196     H      0.997800000000     0.726520000000     0.176630000000     0.0538058  
H197     H      0.997950000000     0.786200000000     0.336920000000     0.0541488  
H198     H      0.996830000000     0.722450000000     0.400200000000     0.0232302  
H199     H      0.037380000000     0.612070000000     0.291930000000     0.0202926  
H200     H      0.042340000000     0.675510000000     0.228150000000     0.0502842  
H201     H      0.976740000000     0.227540000000     0.338350000000     0.0509247  
H202     H      0.980240000000     0.291490000000     0.401570000000     0.0212531  
H203     H      0.019010000000     0.400380000000     0.291210000000     0.0165897  
H204     H      0.019620000000     0.336900000000     0.227610000000     0.0489247  
H205     H      0.976680000000     0.285170000000     0.176410000000     0.0510066  
H206     H      0.980200000000     0.221330000000     0.113130000000     0.0211177  
H207     H      0.018910000000     0.112260000000     0.223340000000     0.0163802  
H208     H      0.019510000000     0.175680000000     0.287050000000     0.048804   
N1       N      0.495940000000     0.349250000000     0.162180000000    -0.217044   
N2       N      0.498290000000     0.161990000000     0.351160000000    -0.219942   
N3       N      0.515090000000     0.850270000000     0.351240000000    -0.216632   
N4       N      0.511560000000     0.662280000000     0.163180000000    -0.214356   
N5       N      0.498590000000     0.850940000000     0.663150000000    -0.214176   
N6       N      0.495080000000     0.662900000000     0.851330000000    -0.216574   
N7       N      0.515620000000     0.163950000000     0.662130000000    -0.21706    
N8       N      0.513340000000     0.351160000000     0.851260000000    -0.219741   
N9       N      0.661740000000     0.161750000000     0.508980000000    -0.219871   
N10      N      0.850640000000     0.349000000000     0.500410000000    -0.216701   
N11      N      0.849150000000     0.661990000000     0.507340000000    -0.214242   
N12      N      0.661820000000     0.850710000000     0.500800000000    -0.216902   
N13      N      0.349770000000     0.163390000000     0.500550000000    -0.216759   
N14      N      0.161600000000     0.351190000000     0.509310000000    -0.220055   
N15      N      0.161120000000     0.663110000000     0.500090000000    -0.216897   
N16      N      0.349120000000     0.851050000000     0.507610000000    -0.214236   
N17      N      0.850060000000     0.499850000000     0.350250000000    -0.216615   
N18      N      0.661670000000     0.506990000000     0.162730000000    -0.214502   
N19      N      0.161640000000     0.508720000000     0.351680000000    -0.219909   
N20      N      0.349460000000     0.499720000000     0.163540000000    -0.216578   
N21      N      0.162170000000     0.500830000000     0.662930000000    -0.217033   
N22      N      0.349800000000     0.508420000000     0.851470000000    -0.219698   
N23      N      0.660610000000     0.500220000000     0.849960000000    -0.217      
N24      N      0.849190000000     0.506610000000     0.662500000000    -0.214315   
N25      N      0.848720000000     0.851440000000     0.005100000000    -0.215138   
N26      N      0.660720000000     0.663170000000     0.008920000000    -0.215518   
N27      N      0.850740000000     0.164160000000     0.013110000000    -0.215303   
N28      N      0.662100000000     0.351000000000     0.001640000000    -0.217979   
N29      N      0.348050000000     0.661480000000     0.002020000000    -0.218427   
N30      N      0.160700000000     0.849810000000     0.012240000000    -0.218126   
N31      N      0.350130000000     0.350240000000     0.009970000000    -0.220622   
N32      N      0.161740000000     0.162020000000     0.004120000000    -0.220568   
N33      N      0.849270000000     0.007170000000     0.851460000000    -0.215181   
N34      N      0.661380000000     0.013680000000     0.663390000000    -0.216385   
N35      N      0.349420000000     0.006870000000     0.662810000000    -0.215576   
N36      N      0.161990000000     0.013250000000     0.851280000000    -0.216807   
N37      N      0.161800000000     0.003900000000     0.162210000000    -0.220904   
N38      N      0.350290000000     0.012790000000     0.349780000000    -0.216462   
N39      N      0.661320000000     0.004070000000     0.351620000000    -0.220809   
N40      N      0.849940000000     0.012410000000     0.164040000000    -0.21442    
N41      N      0.017170000000     0.350680000000     0.663230000000    -0.216503   
N42      N      0.017090000000     0.162980000000     0.851390000000    -0.216302   
N43      N      0.999720000000     0.851130000000     0.850730000000    -0.210944   
N44      N      0.999980000000     0.662540000000     0.662950000000    -0.211202   
N45      N      0.016490000000     0.850370000000     0.162870000000    -0.216155   
N46      N      0.016500000000     0.662350000000     0.350800000000    -0.216495   
N47      N      0.999940000000     0.350770000000     0.351280000000    -0.21624    
N48      N      0.999910000000     0.161970000000     0.163330000000    -0.216136   
O1       O      0.001060000000     0.140590000000     0.078810000000    -0.623258   
O2       O      0.009040000000     0.872320000000     0.078910000000    -0.571837   
O3       O      0.934510000000     0.013010000000     0.142540000000    -0.605882   
O4       O      0.077300000000     0.002610000000     0.141130000000    -0.622331   
O5       O      0.139890000000     0.004970000000     0.077960000000    -0.631588   
O6       O      0.871650000000     0.008900000000     0.079780000000    -0.572532   
O7       O      0.013690000000     0.934970000000     0.141870000000    -0.606741   
O8       O      0.003960000000     0.077630000000     0.141650000000    -0.626323   
O9       O      0.054760000000     0.957610000000     0.056150000000    -1.46038    
O10      O      0.957300000000     0.056240000000     0.056780000000    -1.4571     
O11      O      0.948750000000     0.950280000000     0.058500000000    -1.05373    
O12      O      0.057050000000     0.057610000000     0.058380000000    -1.633      
O13      O      0.000500000000     0.872490000000     0.935240000000    -0.562743   
O14      O      0.014930000000     0.141600000000     0.935970000000    -0.605693   
O15      O      0.870590000000     0.935890000000     0.004080000000    -0.563347   
O16      O      0.139840000000     0.934480000000     0.014080000000    -0.609064   
O17      O      0.139880000000     0.077550000000     0.002660000000    -0.624359   
O18      O      0.871910000000     0.079680000000     0.012720000000    -0.571786   
O19      O      0.933690000000     0.004970000000     0.872770000000    -0.564757   
O20      O      0.077600000000     0.011650000000     0.872850000000    -0.570541   
O21      O      0.871010000000     0.008200000000     0.935850000000    -0.562775   
O22      O      0.140550000000     0.010470000000     0.935640000000    -0.614241   
O23      O      0.933100000000     0.872680000000     0.007210000000    -0.563727   
O24      O      0.935000000000     0.142320000000     0.011040000000    -0.611767   
O25      O      0.077350000000     0.140720000000     0.006370000000    -0.628538   
O26      O      0.076690000000     0.872130000000     0.008280000000    -0.573241   
O27      O      0.004360000000     0.935420000000     0.872420000000    -0.565552   
O28      O      0.008850000000     0.079060000000     0.873040000000    -0.574843   
O29      O      0.055060000000     0.055880000000     0.958430000000    -1.46389    
O30      O      0.956330000000     0.958490000000     0.958310000000    -1.36017    
O31      O      0.949180000000     0.058340000000     0.950740000000    -1.0569     
O32      O      0.056150000000     0.949890000000     0.950260000000    -1.05217    
O33      O      0.001000000000     0.372370000000     0.435760000000    -0.623905   
O34      O      0.009240000000     0.640630000000     0.434820000000    -0.571974   
O35      O      0.934590000000     0.499640000000     0.371710000000    -0.607908   
O36      O      0.077220000000     0.510030000000     0.372950000000    -0.62415    
O37      O      0.139900000000     0.507950000000     0.436040000000    -0.632479   
O38      O      0.871740000000     0.503990000000     0.434450000000    -0.574829   
O39      O      0.013710000000     0.577800000000     0.372040000000    -0.609365   
O40      O      0.003970000000     0.435160000000     0.372760000000    -0.627768   
O41      O      0.054880000000     0.555370000000     0.457820000000    -1.46918    
O42      O      0.957320000000     0.456840000000     0.457550000000    -1.46356    
O43      O      0.948900000000     0.562790000000     0.455500000000    -1.05881    
O44      O      0.057030000000     0.455390000000     0.455950000000    -1.63971    
O45      O      0.000800000000     0.640950000000     0.578480000000    -0.564868   
O46      O      0.014900000000     0.371830000000     0.578610000000    -0.608734   
O47      O      0.870790000000     0.577500000000     0.509580000000    -0.565709   
O48      O      0.140050000000     0.578480000000     0.499490000000    -0.612937   
O49      O      0.139860000000     0.435610000000     0.511380000000    -0.628443   
O50      O      0.871900000000     0.433530000000     0.501390000000    -0.571709   
O51      O      0.933680000000     0.508790000000     0.641350000000    -0.56262    
O52      O      0.077740000000     0.502050000000     0.641360000000    -0.569169   
O53      O      0.871070000000     0.505250000000     0.578210000000    -0.567589   
O54      O      0.140670000000     0.503020000000     0.578540000000    -0.617086   
O55      O      0.933440000000     0.640570000000     0.506140000000    -0.564381   
O56      O      0.934920000000     0.370830000000     0.503330000000    -0.61127    
O57      O      0.077250000000     0.372500000000     0.507970000000    -0.630376   
O58      O      0.077050000000     0.640990000000     0.505010000000    -0.571611   
O59      O      0.004510000000     0.578200000000     0.641500000000    -0.567014   
O60      O      0.008920000000     0.434560000000     0.641370000000    -0.574686   
O61      O      0.055100000000     0.457420000000     0.555870000000    -1.46997    
O62      O      0.956480000000     0.554920000000     0.555680000000    -1.36661    
O63      O      0.949200000000     0.455080000000     0.563600000000    -1.06128    
O64      O      0.056330000000     0.563450000000     0.563700000000    -1.05463    
O65      O      0.639580000000     0.002230000000     0.436010000000    -0.624512   
O66      O      0.371610000000     0.012050000000     0.434320000000    -0.569174   
O67      O      0.514060000000     0.934900000000     0.372410000000    -0.607277   
O68      O      0.500180000000     0.077620000000     0.372900000000    -0.624417   
O69      O      0.503410000000     0.140820000000     0.435480000000    -0.633101   
O70      O      0.508170000000     0.872230000000     0.435230000000    -0.57491    
O71      O      0.434550000000     0.010110000000     0.371550000000    -0.612985   
O72      O      0.576910000000     0.005520000000     0.372970000000    -0.628931   
O73      O      0.457030000000     0.056110000000     0.457440000000    -1.46774    
O74      O      0.554850000000     0.957730000000     0.457940000000    -1.46513    
O75      O      0.448900000000     0.949970000000     0.455870000000    -1.06156    
O76      O      0.556720000000     0.057730000000     0.455760000000    -1.63816    
O77      O      0.370950000000     0.004200000000     0.578360000000    -0.564624   
O78      O      0.640080000000     0.014260000000     0.578790000000    -0.608717   
O79      O      0.433580000000     0.872300000000     0.509650000000    -0.566479   
O80      O      0.434270000000     0.141920000000     0.499610000000    -0.61141    
O81      O      0.577180000000     0.140690000000     0.510570000000    -0.627373   
O82      O      0.577450000000     0.872330000000     0.502500000000    -0.572233   
O83      O      0.500610000000     0.935440000000     0.641580000000    -0.563186   
O84      O      0.511750000000     0.079470000000     0.640860000000    -0.56955    
O85      O      0.504040000000     0.872330000000     0.578880000000    -0.569224   
O86      O      0.510770000000     0.142280000000     0.577870000000    -0.616093   
O87      O      0.370930000000     0.935400000000     0.506330000000    -0.564216   
O88      O      0.640410000000     0.935140000000     0.503250000000    -0.611397   
O89      O      0.639770000000     0.077510000000     0.508100000000    -0.630113   
O90      O      0.371500000000     0.079160000000     0.504770000000    -0.572416   
O91      O      0.433710000000     0.008380000000     0.641300000000    -0.567474   
O92      O      0.577310000000     0.008530000000     0.641460000000    -0.574277   
O93      O      0.554770000000     0.056210000000     0.555700000000    -1.46922    
O94      O      0.456630000000     0.958260000000     0.555780000000    -1.36772    
O95      O      0.556320000000     0.950060000000     0.563980000000    -1.05853    
O96      O      0.448920000000     0.058190000000     0.563390000000    -1.05795    
O97      O      0.434550000000     0.371980000000     0.010810000000    -0.623703   
O98      O      0.432520000000     0.640340000000     0.002920000000    -0.570804   
O99      O      0.370740000000     0.498390000000     0.078920000000    -0.607767   
O100     O      0.371300000000     0.510240000000     0.935960000000    -0.621733   
O101     O      0.434090000000     0.507200000000     0.873000000000    -0.63338    
O102     O      0.433530000000     0.504570000000     0.141550000000    -0.575205   
O103     O      0.369940000000     0.577170000000     0.003530000000    -0.613887   
O104     O      0.371510000000     0.434700000000     0.008460000000    -0.629574   
O105     O      0.455710000000     0.555080000000     0.957920000000    -1.4645     
O106     O      0.456370000000     0.456720000000     0.055800000000    -1.46685    
O107     O      0.454160000000     0.562810000000     0.064070000000    -1.05694    
O108     O      0.454410000000     0.455130000000     0.955840000000    -1.63568    
O109     O      0.576350000000     0.641360000000     0.010120000000    -0.563391   
O110     O      0.577470000000     0.371840000000     0.999900000000    -0.604605   
O111     O      0.509890000000     0.577780000000     0.141650000000    -0.567249   
O112     O      0.496500000000     0.578250000000     0.872480000000    -0.610978   
O113     O      0.511050000000     0.435540000000     0.872970000000    -0.627226   
O114     O      0.499430000000     0.433740000000     0.140930000000    -0.571711   
O115     O      0.639940000000     0.509700000000     0.078380000000    -0.565267   
O116     O      0.639240000000     0.501690000000     0.934450000000    -0.569466   
O117     O      0.577260000000     0.505270000000     0.141380000000    -0.567442   
O118     O      0.576340000000     0.503180000000     0.871650000000    -0.615662   
O119     O      0.506000000000     0.640850000000     0.078950000000    -0.565919   
O120     O      0.500820000000     0.370940000000     0.077930000000    -0.612942   
O121     O      0.508220000000     0.372360000000     0.935590000000    -0.628536   
O122     O      0.501900000000     0.640940000000     0.935340000000    -0.57023    
O123     O      0.639420000000     0.578700000000     0.006660000000    -0.567768   
O124     O      0.639800000000     0.435020000000     0.005210000000    -0.575181   
O125     O      0.554190000000     0.457460000000     0.957510000000    -1.46729    
O126     O      0.553990000000     0.555200000000     0.055840000000    -1.37017    
O127     O      0.562210000000     0.455390000000     0.063500000000    -1.06148    
O128     O      0.561600000000     0.563570000000     0.955950000000    -1.05699    


