data_structure

_audit_creation_method RASPA-1.0
_audit_creation_date 2023-5-19
_audit_author_name 'Poobodin Mano'

_cell_length_a    32.9407
_cell_length_b    32.8286
_cell_length_c    32.8738
_cell_angle_alpha 90
_cell_angle_beta  90
_cell_angle_gamma 90
_cell_volume      35549.6

_symmetry_cell_setting          triclinic
_symmetry_space_group_name_Hall 'P 1'
_symmetry_space_group_name_H-M  'P 1'
_symmetry_Int_Tables_number     1

_symmetry_equiv_pos_as_xyz 'x,y,z'

loop_
_atom_site_label
_atom_site_type_symbol
_atom_site_fract_x
_atom_site_fract_y
_atom_site_fract_z
_atom_site_charge
C1       C      0.993810000000     0.098800000000     0.093350000000     0.503742   
C2       C      0.000250000000     0.903620000000     0.098970000000     0.522469   
C3       C      0.899070000000     0.006960000000     0.096730000000     0.511311   
C4       C      0.092880000000     0.997210000000     0.097440000000     0.507703   
C5       C      0.992470000000     0.897980000000     0.904350000000     0.502986   
C6       C      0.006650000000     0.094070000000     0.898930000000     0.511058   
C7       C      0.897960000000     0.902340000000     0.998790000000     0.49415    
C8       C      0.093350000000     0.899960000000     0.007990000000     0.513075   
C9       C      0.095210000000     0.094740000000     0.994150000000     0.506354   
C10      C      0.901530000000     0.099350000000     0.000270000000     0.516802   
C11      C      0.900350000000     0.996130000000     0.899790000000     0.500144   
C12      C      0.095580000000     0.997650000000     0.901840000000     0.508089   
C13      C      0.988330000000     0.402580000000     0.400090000000     0.506421   
C14      C      0.996950000000     0.597850000000     0.402060000000     0.509787   
C15      C      0.895600000000     0.495530000000     0.403270000000     0.509979   
C16      C      0.091210000000     0.503490000000     0.399050000000     0.506008   
C17      C      0.997190000000     0.595190000000     0.597300000000     0.500698   
C18      C      0.004400000000     0.399650000000     0.594690000000     0.510664   
C19      C      0.898870000000     0.596770000000     0.505070000000     0.499155   
C20      C      0.093780000000     0.596540000000     0.491580000000     0.509316   
C21      C      0.092920000000     0.400770000000     0.497510000000     0.509827   
C22      C      0.898890000000     0.400220000000     0.497850000000     0.512733   
C23      C      0.901410000000     0.498720000000     0.599300000000     0.504075   
C24      C      0.095890000000     0.492860000000     0.594330000000     0.513585   
C25      C      0.593010000000     0.000040000000     0.400250000000     0.506237   
C26      C      0.399010000000     0.007100000000     0.400550000000     0.510199   
C27      C      0.502270000000     0.904400000000     0.397470000000     0.513717   
C28      C      0.492420000000     0.099240000000     0.403700000000     0.51507    
C29      C      0.399650000000     0.995750000000     0.596670000000     0.498423   
C30      C      0.594610000000     0.002950000000     0.595740000000     0.510018   
C31      C      0.399420000000     0.900990000000     0.498360000000     0.498128   
C32      C      0.399470000000     0.097660000000     0.496090000000     0.512364   
C33      C      0.593270000000     0.096850000000     0.502780000000     0.508726   
C34      C      0.594360000000     0.901700000000     0.490660000000     0.508885   
C35      C      0.495000000000     0.898830000000     0.593200000000     0.503052   
C36      C      0.502440000000     0.095960000000     0.597270000000     0.516055   
C37      C      0.401120000000     0.398230000000     0.999200000000     0.505365   
C38      C      0.395310000000     0.593420000000     0.991250000000     0.508842   
C39      C      0.395560000000     0.491490000000     0.093560000000     0.507839   
C40      C      0.400610000000     0.498050000000     0.898560000000     0.508179   
C41      C      0.590350000000     0.599110000000     0.000000000000     0.504356   
C42      C      0.594720000000     0.402240000000     0.995240000000     0.510391   
C43      C      0.494640000000     0.596670000000     0.095220000000     0.50056    
C44      C      0.488920000000     0.595190000000     0.899640000000     0.511803   
C45      C      0.503880000000     0.400010000000     0.902410000000     0.509703   
C46      C      0.489730000000     0.400930000000     0.096020000000     0.512642   
C47      C      0.591680000000     0.502590000000     0.097140000000     0.498827   
C48      C      0.594340000000     0.494630000000     0.901490000000     0.512383   
C49      C      0.492930000000     0.200240000000     0.353000000000    -0.113603   
C50      C      0.484950000000     0.331070000000     0.115210000000     0.0904145  
C51      C      0.487660000000     0.382290000000     0.166000000000     0.0888716  
C52      C      0.483710000000     0.300770000000     0.144970000000    -0.105453   
C53      C      0.459350000000     0.246210000000     0.216330000000    -0.0358424  
C54      C      0.459970000000     0.216580000000     0.246850000000    -0.0345059  
C55      C      0.485720000000     0.279790000000     0.218170000000    -0.00974963 
C56      C      0.486770000000     0.352780000000     0.196490000000    -0.104932   
C57      C      0.487150000000     0.219840000000     0.279680000000    -0.0117933  
C58      C      0.483900000000     0.147390000000     0.303530000000    -0.107289   
C59      C      0.513830000000     0.253240000000     0.281140000000    -0.0347218  
C60      C      0.485550000000     0.118650000000     0.334680000000     0.0858228  
C61      C      0.494970000000     0.170940000000     0.383870000000     0.107524   
C62      C      0.513020000000     0.282930000000     0.250820000000    -0.0357913  
C63      C      0.485090000000     0.311480000000     0.186120000000     0.0566396  
C64      C      0.487740000000     0.188720000000     0.312460000000     0.0595158  
C65      C      0.508380000000     0.853430000000     0.296830000000    -0.112913   
C66      C      0.494690000000     0.615960000000     0.165110000000     0.0877095  
C67      C      0.497580000000     0.666780000000     0.113940000000     0.0875685  
C68      C      0.495870000000     0.645680000000     0.195420000000    -0.104185   
C69      C      0.474200000000     0.716910000000     0.250670000000    -0.0358414  
C70      C      0.475550000000     0.747220000000     0.280470000000    -0.0345536  
C71      C      0.499940000000     0.718800000000     0.216630000000    -0.00947428 
C72      C      0.499120000000     0.697270000000     0.143510000000    -0.104068   
C73      C      0.502830000000     0.779990000000     0.276970000000    -0.0114818  
C74      C      0.499960000000     0.803670000000     0.349450000000    -0.106078   
C75      C      0.528870000000     0.781570000000     0.243100000000    -0.0345388  
C76      C      0.500310000000     0.834890000000     0.378190000000     0.0867552  
C77      C      0.509190000000     0.884370000000     0.326160000000     0.109299   
C78      C      0.527340000000     0.751390000000     0.213210000000    -0.0358305  
C79      C      0.498250000000     0.686860000000     0.184790000000     0.055711   
C80      C      0.503690000000     0.812730000000     0.308180000000     0.0597677  
C81      C      0.495600000000     0.797560000000     0.643520000000    -0.112178   
C82      C      0.484450000000     0.665110000000     0.880530000000     0.0883905  
C83      C      0.487480000000     0.614030000000     0.829630000000     0.0897931  
C84      C      0.483760000000     0.695530000000     0.850860000000    -0.104      
C85      C      0.460980000000     0.750940000000     0.779770000000    -0.0357815  
C86      C      0.462240000000     0.780870000000     0.749520000000    -0.0345373  
C87      C      0.486760000000     0.716890000000     0.777740000000    -0.00947294 
C88      C      0.487100000000     0.643680000000     0.799210000000    -0.10499    
C89      C      0.489450000000     0.777450000000     0.716730000000    -0.0112336  
C90      C      0.487200000000     0.850180000000     0.693300000000    -0.105286   
C91      C      0.515510000000     0.743550000000     0.715050000000    -0.0345935  
C92      C      0.488950000000     0.879120000000     0.662280000000     0.0857488  
C93      C      0.497680000000     0.827020000000     0.612780000000     0.108522   
C94      C      0.514080000000     0.713580000000     0.745110000000    -0.0356856  
C95      C      0.485560000000     0.684990000000     0.809660000000     0.0561269  
C96      C      0.490570000000     0.808840000000     0.684140000000     0.0593407  
C97      C      0.504590000000     0.195460000000     0.650630000000    -0.113453   
C98      C      0.510240000000     0.329760000000     0.885320000000     0.0870709  
C99      C      0.506820000000     0.379220000000     0.832920000000     0.0857376  
C100     C      0.512920000000     0.298560000000     0.856630000000    -0.104826   
C101     C      0.492830000000     0.238000000000     0.790070000000    -0.0358539  
C102     C      0.493110000000     0.207670000000     0.760230000000    -0.0347193  
C103     C      0.513980000000     0.274770000000     0.784080000000    -0.00954322 
C104     C      0.509300000000     0.348710000000     0.803390000000    -0.104388   
C105     C      0.514340000000     0.213540000000     0.723640000000    -0.0115922  
C106     C      0.515190000000     0.141340000000     0.698410000000    -0.105993   
C107     C      0.536210000000     0.249860000000     0.718010000000    -0.0347962  
C108     C      0.511750000000     0.113300000000     0.666660000000     0.0864748  
C109     C      0.500570000000     0.166920000000     0.619270000000     0.110927   
C110     C      0.536110000000     0.280090000000     0.747900000000    -0.0357591  
C111     C      0.512260000000     0.307740000000     0.815070000000     0.054884   
C112     C      0.511870000000     0.182950000000     0.690500000000     0.0601092  
C113     C      0.846580000000     0.301730000000     0.511410000000    -0.113182   
C114     C      0.611920000000     0.166910000000     0.499240000000     0.0858217  
C115     C      0.662820000000     0.116500000000     0.506920000000     0.085935   
C116     C      0.641370000000     0.197460000000     0.497860000000    -0.10459    
C117     C      0.707530000000     0.258570000000     0.516000000000    -0.0355425  
C118     C      0.737550000000     0.288610000000     0.514390000000    -0.0349458  
C119     C      0.714520000000     0.219620000000     0.499460000000    -0.00951008 
C120     C      0.693010000000     0.146350000000     0.506290000000    -0.104221   
C121     C      0.775450000000     0.280210000000     0.496780000000    -0.0116568  
C122     C      0.800240000000     0.351120000000     0.484020000000    -0.106784   
C123     C      0.782580000000     0.241480000000     0.480190000000    -0.0350862  
C124     C      0.831200000000     0.380100000000     0.485040000000     0.0883474  
C125     C      0.876870000000     0.331590000000     0.513260000000     0.110185   
C126     C      0.752370000000     0.211630000000     0.481210000000    -0.0357742  
C127     C      0.682600000000     0.187460000000     0.501280000000     0.0544549  
C128     C      0.807950000000     0.311360000000     0.496850000000     0.0601184  
C129     C      0.847330000000     0.696810000000     0.511930000000    -0.112061   
C130     C      0.612970000000     0.831620000000     0.485940000000     0.0866081  
C131     C      0.664080000000     0.882160000000     0.491460000000     0.0885315  
C132     C      0.642310000000     0.800880000000     0.486370000000    -0.104309   
C133     C      0.714730000000     0.745430000000     0.466370000000    -0.0359785  
C134     C      0.744670000000     0.715320000000     0.469150000000    -0.0347454  
C135     C      0.714820000000     0.778740000000     0.493210000000    -0.00967473 
C136     C      0.694140000000     0.852170000000     0.492460000000    -0.104964   
C137     C      0.775120000000     0.717650000000     0.499110000000    -0.0111263  
C138     C      0.799000000000     0.644960000000     0.494900000000    -0.104881   
C139     C      0.774660000000     0.750750000000     0.526330000000    -0.0348171  
C140     C      0.829910000000     0.615970000000     0.497340000000     0.0852944  
C141     C      0.877710000000     0.667130000000     0.515080000000     0.106707   
C142     C      0.745040000000     0.781020000000     0.523250000000    -0.0360178  
C143     C      0.683380000000     0.810980000000     0.490300000000     0.0555056  
C144     C      0.807540000000     0.686070000000     0.501760000000     0.0581178  
C145     C      0.145170000000     0.300790000000     0.492330000000    -0.113181   
C146     C      0.381080000000     0.167850000000     0.497900000000     0.0904629  
C147     C      0.329850000000     0.117390000000     0.493290000000     0.0879918  
C148     C      0.351810000000     0.198570000000     0.498690000000    -0.105015   
C149     C      0.284590000000     0.258180000000     0.478000000000    -0.0355321  
C150     C      0.254560000000     0.288260000000     0.479020000000    -0.0347849  
C151     C      0.278880000000     0.220860000000     0.498280000000    -0.00935894 
C152     C      0.299780000000     0.147370000000     0.493800000000    -0.103652   
C153     C      0.218070000000     0.281570000000     0.500110000000    -0.0115195  
C154     C      0.193620000000     0.353760000000     0.504970000000    -0.106748   
C155     C      0.212530000000     0.244510000000     0.520750000000    -0.0346818  
C156     C      0.162160000000     0.382220000000     0.503890000000     0.0856026  
C157     C      0.114080000000     0.329820000000     0.490710000000     0.107088   
C158     C      0.242610000000     0.214560000000     0.519940000000    -0.0355247  
C159     C      0.310530000000     0.188570000000     0.496820000000     0.0559338  
C160     C      0.185240000000     0.312500000000     0.499460000000     0.0593773  
C161     C      0.145630000000     0.696190000000     0.481490000000    -0.111289   
C162     C      0.380970000000     0.830750000000     0.500960000000     0.0867028  
C163     C      0.329770000000     0.881220000000     0.495650000000     0.0864941  
C164     C      0.351670000000     0.799970000000     0.500420000000    -0.103062   
C165     C      0.279610000000     0.745020000000     0.522550000000    -0.0360623  
C166     C      0.249470000000     0.715020000000     0.521170000000    -0.0344575  
C167     C      0.279070000000     0.777720000000     0.494990000000    -0.00918278 
C168     C      0.299760000000     0.851170000000     0.494490000000    -0.103307   
C169     C      0.218320000000     0.716830000000     0.491890000000    -0.0112362  
C170     C      0.193970000000     0.644510000000     0.499000000000    -0.106414   
C171     C      0.218340000000     0.749290000000     0.463900000000    -0.0346414  
C172     C      0.162780000000     0.615720000000     0.498340000000     0.0862135  
C173     C      0.114900000000     0.666700000000     0.480220000000     0.106662   
C174     C      0.248180000000     0.779480000000     0.465610000000    -0.0361061  
C175     C      0.310560000000     0.810010000000     0.496790000000     0.054935   
C176     C      0.185610000000     0.685430000000     0.490890000000     0.0585612  
C177     C      0.794670000000     0.499410000000     0.352890000000    -0.112538   
C178     C      0.661430000000     0.501640000000     0.116410000000     0.087296   
C179     C      0.610550000000     0.503600000000     0.167300000000     0.0862246  
C180     C      0.691760000000     0.500350000000     0.146020000000    -0.103135   
C181     C      0.750650000000     0.519140000000     0.214120000000    -0.0357     
C182     C      0.780820000000     0.517030000000     0.243970000000    -0.0346153  
C183     C      0.713490000000     0.498570000000     0.219230000000    -0.00895748 
C184     C      0.640180000000     0.502560000000     0.197750000000    -0.102559   
C185     C      0.774460000000     0.494560000000     0.279770000000    -0.011411   
C186     C      0.846750000000     0.488680000000     0.303180000000    -0.106097   
C187     C      0.737450000000     0.473870000000     0.284870000000    -0.0347417  
C188     C      0.875630000000     0.489090000000     0.334260000000     0.0870376  
C189     C      0.824100000000     0.500320000000     0.383660000000     0.107975   
C190     C      0.707380000000     0.475750000000     0.254920000000    -0.0357371  
C191     C      0.681420000000     0.500630000000     0.187330000000     0.054691   
C192     C      0.805740000000     0.493830000000     0.312330000000     0.0595105  
C193     C      0.189840000000     0.510330000000     0.345130000000    -0.112674   
C194     C      0.374610000000     0.493970000000     0.163010000000     0.0871013  
C195     C      0.325470000000     0.485270000000     0.111080000000     0.0884276  
C196     C      0.344100000000     0.494980000000     0.192520000000    -0.103471   
C197     C      0.237400000000     0.467180000000     0.211700000000    -0.0360516  
C198     C      0.207130000000     0.469710000000     0.241530000000    -0.0347088  
C199     C      0.270460000000     0.494300000000     0.212000000000    -0.00919373 
C200     C      0.294230000000     0.485760000000     0.139880000000    -0.103873   
C201     C      0.209120000000     0.499590000000     0.272180000000    -0.0113486  
C202     C      0.137040000000     0.494450000000     0.297600000000    -0.105521   
C203     C      0.241720000000     0.527310000000     0.271700000000    -0.0346784  
C204     C      0.108820000000     0.496290000000     0.329360000000     0.0817919  
C205     C      0.161070000000     0.512690000000     0.376400000000     0.106248   
C206     C      0.272060000000     0.524570000000     0.242150000000    -0.036045   
C207     C      0.303300000000     0.491300000000     0.181100000000     0.0551623  
C208     C      0.178200000000     0.501280000000     0.305290000000     0.0576673  
C209     C      0.149460000000     0.492680000000     0.693700000000    -0.112478   
C210     C      0.383760000000     0.495920000000     0.828060000000     0.0860967  
C211     C      0.331330000000     0.497130000000     0.877400000000     0.0853006  
C212     C      0.355200000000     0.493790000000     0.796750000000    -0.104884   
C213     C      0.287840000000     0.511800000000     0.736240000000    -0.0356134  
C214     C      0.258140000000     0.510010000000     0.705870000000    -0.0346271  
C215     C      0.282850000000     0.490310000000     0.772950000000    -0.00955764 
C216     C      0.301960000000     0.495130000000     0.846810000000    -0.104457   
C217     C      0.222740000000     0.486860000000     0.711660000000    -0.01139    
C218     C      0.197450000000     0.484520000000     0.639560000000    -0.106289   
C219     C      0.218190000000     0.464640000000     0.747920000000    -0.034918   
C220     C      0.165510000000     0.486160000000     0.611640000000     0.0867817  
C221     C      0.117870000000     0.494820000000     0.665340000000     0.10889    
C222     C      0.247900000000     0.466290000000     0.778160000000    -0.035754   
C223     C      0.313710000000     0.493150000000     0.805870000000     0.0547305  
C224     C      0.189550000000     0.487620000000     0.681120000000     0.0598488  
C225     C      0.851200000000     0.493800000000     0.700350000000    -0.112765   
C226     C      0.614030000000     0.493210000000     0.831760000000     0.0900444  
C227     C      0.664400000000     0.492990000000     0.883230000000     0.0877627  
C228     C      0.643860000000     0.493510000000     0.801630000000    -0.104947   
C229     C      0.712700000000     0.472940000000     0.744200000000    -0.0356013  
C230     C      0.742810000000     0.474400000000     0.714300000000    -0.0346963  
C231     C      0.717120000000     0.494910000000     0.780690000000    -0.00950321 
C232     C      0.695020000000     0.493050000000     0.853850000000    -0.103902   
C233     C      0.778120000000     0.497610000000     0.720320000000    -0.0114847  
C234     C      0.801370000000     0.502620000000     0.647980000000    -0.105841   
C235     C      0.782570000000     0.519600000000     0.756710000000    -0.0349072  
C236     C      0.832390000000     0.502740000000     0.619120000000     0.0863291  
C237     C      0.881950000000     0.493420000000     0.670920000000     0.108794   
C238     C      0.752370000000     0.518370000000     0.786500000000    -0.0356641  
C239     C      0.684970000000     0.493660000000     0.812430000000     0.0557856  
C240     C      0.810630000000     0.498250000000     0.689110000000     0.0596871  
C241     C      0.641040000000     0.700190000000     0.995710000000    -0.116921   
C242     C      0.878430000000     0.832430000000     0.001810000000     0.0882972  
C243     C      0.828000000000     0.883560000000     0.996050000000     0.0836865  
C244     C      0.848670000000     0.802130000000     0.002440000000    -0.0945084  
C245     C      0.781060000000     0.743290000000     0.980680000000    -0.0434608  
C246     C      0.750820000000     0.713390000000     0.981450000000    -0.0365688  
C247     C      0.775410000000     0.780730000000     0.000750000000     0.00322411 
C248     C      0.797460000000     0.854000000000     0.996480000000    -0.0987253  
C249     C      0.714120000000     0.720270000000     0.002140000000    -0.00912948 
C250     C      0.690350000000     0.647810000000     0.007190000000    -0.105931   
C251     C      0.708510000000     0.757580000000     0.022360000000    -0.0325164  
C252     C      0.659270000000     0.618930000000     0.006380000000     0.0869108  
C253     C      0.610240000000     0.670730000000     0.994510000000     0.106241   
C254     C      0.738800000000     0.787400000000     0.021750000000    -0.0392849  
C255     C      0.807550000000     0.812650000000     0.999840000000     0.0422298  
C256     C      0.681440000000     0.689000000000     0.001940000000     0.0638771  
C257     C      0.850900000000     0.200460000000     0.998540000000    -0.117901   
C258     C      0.614270000000     0.332400000000     0.993730000000     0.0899885  
C259     C      0.664790000000     0.383810000000     0.994440000000     0.0875494  
C260     C      0.643980000000     0.302140000000     0.994240000000    -0.106272   
C261     C      0.713120000000     0.244760000000     0.974040000000    -0.0314096  
C262     C      0.743060000000     0.214660000000     0.975830000000    -0.0422459  
C263     C      0.717050000000     0.280890000000     0.996720000000    -0.0168849  
C264     C      0.695320000000     0.354260000000     0.994870000000    -0.105273   
C265     C      0.777680000000     0.220090000000     0.000190000000    -0.00509017 
C266     C      0.801110000000     0.147500000000     0.003340000000    -0.106364   
C267     C      0.781530000000     0.256080000000     0.023020000000    -0.0382122  
C268     C      0.832290000000     0.118740000000     0.003370000000     0.0877347  
C269     C      0.881830000000     0.171190000000     0.998250000000     0.107986   
C270     C      0.751540000000     0.286100000000     0.021360000000    -0.0274707  
C271     C      0.685100000000     0.312830000000     0.995090000000     0.0577777  
C272     C      0.810260000000     0.188880000000     0.000930000000     0.0634118  
C273     C      0.191610000000     0.845920000000     0.017280000000    -0.115042   
C274     C      0.325190000000     0.611170000000     0.986610000000     0.0887363  
C275     C      0.374810000000     0.662950000000     0.994060000000     0.0880686  
C276     C      0.294150000000     0.640170000000     0.988020000000    -0.105779   
C277     C      0.238200000000     0.713080000000     0.970570000000    -0.0319596  
C278     C      0.208360000000     0.743220000000     0.973920000000    -0.041081   
C279     C      0.271280000000     0.712410000000     0.997520000000    -0.0167535  
C280     C      0.344560000000     0.692620000000     0.996020000000    -0.105938   
C281     C      0.210820000000     0.773110000000     0.004530000000    -0.00634236 
C282     C      0.139000000000     0.798520000000     0.999970000000    -0.119752   
C283     C      0.243510000000     0.771700000000     0.032030000000    -0.0376652  
C284     C      0.110860000000     0.830240000000     0.001700000000     0.100111   
C285     C      0.162800000000     0.877210000000     0.019500000000     0.110972   
C286     C      0.273470000000     0.741860000000     0.028420000000    -0.0280826  
C287     C      0.303680000000     0.681340000000     0.993500000000     0.0577285  
C288     C      0.180050000000     0.806210000000     0.007230000000     0.0664193  
C289     C      0.351000000000     0.297160000000     0.993640000000    -0.113026   
C290     C      0.114570000000     0.164660000000     0.994700000000     0.085947   
C291     C      0.165170000000     0.113390000000     0.992170000000     0.0850579  
C292     C      0.144250000000     0.194950000000     0.995460000000    -0.105697   
C293     C      0.212340000000     0.253320000000     0.975230000000    -0.0350826  
C294     C      0.242320000000     0.283380000000     0.976830000000    -0.0354448  
C295     C      0.217390000000     0.216250000000     0.996110000000    -0.0144543  
C296     C      0.195650000000     0.142950000000     0.992640000000    -0.105845   
C297     C      0.278130000000     0.276930000000     0.999090000000    -0.0150572  
C298     C      0.301350000000     0.349280000000     0.005140000000    -0.10254    
C299     C      0.283210000000     0.239980000000     0.020040000000    -0.0313699  
C300     C      0.332280000000     0.378260000000     0.004850000000     0.0881664  
C301     C      0.381620000000     0.326740000000     0.992790000000     0.10566    
C302     C      0.253130000000     0.210030000000     0.018680000000    -0.03136    
C303     C      0.185400000000     0.184330000000     0.994610000000     0.0555998  
C304     C      0.310570000000     0.308220000000     0.999650000000     0.0550247  
C305     C      0.849020000000     0.993880000000     0.799170000000    -0.111539   
C306     C      0.613130000000     0.005380000000     0.665830000000     0.0878222  
C307     C      0.664380000000     0.004360000000     0.615210000000     0.0886336  
C308     C      0.642460000000     0.005450000000     0.696490000000    -0.103658   
C309     C      0.712590000000     0.027390000000     0.753300000000    -0.0370627  
C310     C      0.742570000000     0.025730000000     0.783400000000    -0.0323018  
C311     C      0.715250000000     0.002570000000     0.718540000000    -0.00702223 
C312     C      0.694480000000     0.004090000000     0.645140000000    -0.104006   
C313     C      0.775770000000     0.999070000000     0.779490000000    -0.0127926  
C314     C      0.799630000000     0.000800000000     0.852160000000    -0.100741   
C315     C      0.777980000000     0.973810000000     0.744980000000    -0.0335997  
C316     C      0.830920000000     0.999590000000     0.880810000000     0.0810599  
C317     C      0.879970000000     0.992160000000     0.828320000000     0.108627   
C318     C      0.748190000000     0.975660000000     0.714820000000    -0.0383365  
C319     C      0.683690000000     0.004330000000     0.686350000000     0.055102   
C320     C      0.808470000000     0.998030000000     0.810740000000     0.0569286  
C321     C      0.148890000000     0.984530000000     0.803830000000    -0.114239   
C322     C      0.381460000000     0.000240000000     0.666710000000     0.0881602  
C323     C      0.330170000000     0.991820000000     0.616930000000     0.0859012  
C324     C      0.352300000000     0.001830000000     0.697490000000    -0.101565   
C325     C      0.287240000000     0.983910000000     0.759650000000    -0.0344839  
C326     C      0.257570000000     0.985320000000     0.790040000000    -0.0371316  
C327     C      0.279430000000     0.999730000000     0.720570000000    -0.0108654  
C328     C      0.300230000000     0.992600000000     0.647060000000    -0.102208   
C329     C      0.219180000000     0.001950000000     0.781900000000    -0.00949065 
C330     C      0.193950000000     0.014560000000     0.852750000000    -0.106798   
C331     C      0.211250000000     0.017910000000     0.743090000000    -0.0358938  
C332     C      0.162990000000     0.012640000000     0.881730000000     0.0898184  
C333     C      0.118710000000     0.981700000000     0.833670000000     0.109473   
C334     C      0.241110000000     0.017140000000     0.712890000000    -0.0331029  
C335     C      0.311000000000     0.998010000000     0.688010000000     0.053455   
C336     C      0.186810000000     0.000960000000     0.813170000000     0.061321   
C337     C      0.144480000000     0.994050000000     0.197670000000    -0.114767   
C338     C      0.380100000000     0.013700000000     0.330800000000     0.0891693  
C339     C      0.329220000000     0.006440000000     0.381290000000     0.087672   
C340     C      0.350630000000     0.014100000000     0.300240000000    -0.104236   
C341     C      0.278560000000     0.034880000000     0.245100000000    -0.0361956  
C342     C      0.248450000000     0.032970000000     0.215130000000    -0.0345814  
C343     C      0.277990000000     0.007830000000     0.278240000000    -0.00787535 
C344     C      0.299040000000     0.006380000000     0.351470000000    -0.10369    
C345     C      0.217260000000     0.003790000000     0.217550000000    -0.01055    
C346     C      0.192980000000     0.007880000000     0.145140000000    -0.107384   
C347     C      0.217200000000     0.976340000000     0.250420000000    -0.0357141  
C348     C      0.161800000000     0.005620000000     0.116460000000     0.0834494  
C349     C      0.113730000000     0.991210000000     0.168400000000     0.106171   
C350     C      0.247070000000     0.978450000000     0.280450000000    -0.0373469  
C351     C      0.309600000000     0.009810000000     0.310370000000     0.0554483  
C352     C      0.184540000000     0.002140000000     0.186350000000     0.0599413  
C353     C      0.846530000000     0.005150000000     0.196580000000    -0.110994   
C354     C      0.611090000000     0.007560000000     0.330410000000     0.0834087  
C355     C      0.662580000000     0.998350000000     0.379880000000     0.0806036  
C356     C      0.640150000000     0.009980000000     0.299590000000    -0.10359    
C357     C      0.706630000000     0.990850000000     0.238400000000    -0.0373429  
C358     C      0.736570000000     0.992640000000     0.208260000000    -0.0360527  
C359     C      0.712840000000     0.009340000000     0.276520000000    -0.00725194 
C360     C      0.692460000000     0.000650000000     0.349760000000    -0.0992296  
C361     C      0.773460000000     0.012870000000     0.215570000000    -0.00954861 
C362     C      0.798400000000     0.017630000000     0.143370000000    -0.104529   
C363     C      0.779350000000     0.032020000000     0.253380000000    -0.0349792  
C364     C      0.829970000000     0.015780000000     0.115020000000     0.0858558  
C365     C      0.877730000000     0.002900000000     0.167720000000     0.11047    
C366     C      0.749430000000     0.030280000000     0.283470000000    -0.0363504  
C367     C      0.681450000000     0.006600000000     0.309000000000     0.052191   
C368     C      0.806510000000     0.012370000000     0.184720000000     0.0585157  
C369     C      0.020570000000     0.144200000000     0.798890000000    -0.109916   
C370     C      0.004620000000     0.380300000000     0.664500000000     0.0891455  
C371     C      0.011800000000     0.329820000000     0.613430000000     0.0899637  
C372     C      0.005950000000     0.350610000000     0.694800000000    -0.103581   
C373     C      0.982640000000     0.278480000000     0.748070000000    -0.0406235  
C374     C      0.983060000000     0.248400000000     0.778120000000    -0.039829   
C375     C      0.011010000000     0.277680000000     0.716170000000    -0.00445516 
C376     C      0.013640000000     0.299340000000     0.643050000000    -0.103884   
C377     C      0.012070000000     0.216980000000     0.777140000000    -0.00480828 
C378     C      0.003920000000     0.194010000000     0.849530000000    -0.100238   
C379     C      0.040640000000     0.216430000000     0.745300000000    -0.0355259  
C380     C      0.003200000000     0.163200000000     0.878720000000     0.0931818  
C381     C      0.020330000000     0.113790000000     0.828790000000     0.108538   
C382     C      0.039980000000     0.246330000000     0.715050000000    -0.03618    
C383     C      0.010340000000     0.309580000000     0.684260000000     0.055428   
C384     C      0.012140000000     0.184680000000     0.808920000000     0.0569972  
C385     C      0.986700000000     0.796710000000     0.854330000000    -0.113733   
C386     C      0.000640000000     0.664920000000     0.617080000000     0.10124    
C387     C      0.994170000000     0.613590000000     0.667370000000     0.0891347  
C388     C      0.999950000000     0.695130000000     0.646910000000    -0.121599   
C389     C      0.020900000000     0.749820000000     0.718440000000    -0.0296608  
C390     C      0.019590000000     0.779660000000     0.748690000000    -0.0301389  
C391     C      0.994620000000     0.716120000000     0.719970000000    -0.017744   
C392     C      0.993290000000     0.643030000000     0.697980000000    -0.108743   
C393     C      0.991940000000     0.776480000000     0.781100000000    -0.016562   
C394     C      0.994290000000     0.849110000000     0.804180000000    -0.108061   
C395     C      0.965510000000     0.742890000000     0.782480000000    -0.0349272  
C396     C      0.993920000000     0.878080000000     0.835130000000     0.0858621  
C397     C      0.986160000000     0.826290000000     0.885050000000     0.108764   
C398     C      0.966870000000     0.713020000000     0.752280000000    -0.0341937  
C399     C      0.996010000000     0.684370000000     0.687900000000     0.0626817  
C400     C      0.990990000000     0.807860000000     0.813600000000     0.0605635  
C401     C      0.986170000000     0.697810000000     0.351660000000    -0.108491   
C402     C      0.008980000000     0.834450000000     0.118710000000     0.091034   
C403     C      0.995920000000     0.884740000000     0.168830000000     0.0849521  
C404     C      0.010220000000     0.804190000000     0.148440000000    -0.106321   
C405     C      0.033710000000     0.752680000000     0.222420000000    -0.0337382  
C406     C      0.032800000000     0.722250000000     0.252140000000    -0.0391616  
C407     C      0.002990000000     0.782310000000     0.220790000000    -0.00757734 
C408     C      0.996410000000     0.855130000000     0.199290000000    -0.111533   
C409     C      0.000920000000     0.720640000000     0.280560000000     0.0027067  
C410     C      0.011660000000     0.648610000000     0.304090000000    -0.0970065  
C411     C      0.969970000000     0.750130000000     0.278450000000    -0.0432941  
C412     C      0.009820000000     0.619010000000     0.334500000000     0.0886624  
C413     C      0.983720000000     0.667520000000     0.381440000000     0.103883   
C414     C      0.971160000000     0.780770000000     0.249080000000    -0.0378193  
C415     C      0.003570000000     0.814350000000     0.189170000000     0.0619663  
C416     C      0.999930000000     0.688630000000     0.312530000000     0.0445232  
C417     C      0.973320000000     0.304750000000     0.346040000000    -0.112804   
C418     C      0.997020000000     0.169270000000     0.110990000000     0.0780968  
C419     C      0.986530000000     0.119760000000     0.162420000000     0.0858965  
C420     C      0.995840000000     0.200450000000     0.139930000000    -0.103197   
C421     C      0.017120000000     0.254640000000     0.213150000000    -0.0315786  
C422     C      0.016240000000     0.284490000000     0.243540000000    -0.0294001  
C423     C      0.987660000000     0.223710000000     0.212190000000    -0.0142444  
C424     C      0.984620000000     0.150210000000     0.192020000000    -0.104921   
C425     C      0.985610000000     0.284320000000     0.273410000000    -0.0175008  
C426     C      0.996540000000     0.355690000000     0.299260000000    -0.111838   
C427     C      0.955640000000     0.253780000000     0.271730000000    -0.0336825  
C428     C      0.996470000000     0.384050000000     0.330920000000     0.079615   
C429     C      0.972760000000     0.333860000000     0.377220000000     0.105366   
C430     C      0.956830000000     0.223710000000     0.241670000000    -0.0358728  
C431     C      0.989370000000     0.191100000000     0.180950000000     0.0545273  
C432     C      0.985290000000     0.315310000000     0.306620000000     0.0603647  
Eu1      Eu     0.995610000000     0.000220000000     0.070790000000     3.48934    
Eu2      Eu     0.995890000000     0.926510000000     0.000950000000     3.06517    
Eu3      Eu     0.997530000000     0.070760000000     0.996360000000     3.44394    
Eu4      Eu     0.924210000000     0.000160000000     0.998360000000     3.03035    
Eu5      Eu     0.068970000000     0.997210000000     0.998960000000     3.48076    
Eu6      Eu     0.997600000000     0.996840000000     0.926510000000     3.03008    
Eu7      Eu     0.993670000000     0.500150000000     0.426410000000     3.44091    
Eu8      Eu     0.996280000000     0.571000000000     0.499380000000     3.0385     
Eu9      Eu     0.995520000000     0.426620000000     0.498240000000     3.46811    
Eu10     Eu     0.923670000000     0.498590000000     0.500470000000     3.05751    
Eu11     Eu     0.068190000000     0.499090000000     0.497410000000     3.48489    
Eu12     Eu     0.997990000000     0.497770000000     0.570830000000     3.05785    
Eu13     Eu     0.495650000000     0.000590000000     0.426250000000     3.50985    
Eu14     Eu     0.424010000000     0.999210000000     0.498460000000     3.02186    
Eu15     Eu     0.568690000000     0.998800000000     0.498520000000     3.47264    
Eu16     Eu     0.496760000000     0.926940000000     0.496250000000     3.04868    
Eu17     Eu     0.495930000000     0.071120000000     0.500470000000     3.55076    
Eu18     Eu     0.496980000000     0.997800000000     0.570800000000     3.04534    
Eu19     Eu     0.423450000000     0.497070000000     0.997210000000     3.47252    
Eu20     Eu     0.493560000000     0.570730000000     0.997590000000     3.02412    
Eu21     Eu     0.497750000000     0.426530000000     0.999350000000     3.48818    
Eu22     Eu     0.494080000000     0.498820000000     0.070700000000     3.05958    
Eu23     Eu     0.497340000000     0.498350000000     0.926010000000     3.5269     
Eu24     Eu     0.567930000000     0.500060000000     0.999150000000     3.03076    
H1       H      0.958210000000     0.963460000000     0.066750000000    -0.177104   
H2       H      0.056050000000     0.058630000000     0.056880000000     0.414063   
H3       H      0.960820000000     0.065830000000     0.958850000000    -0.16831    
H4       H      0.063680000000     0.959100000000     0.963230000000    -0.184624   
H5       H      0.956820000000     0.536890000000     0.432930000000    -0.177891   
H6       H      0.053170000000     0.440180000000     0.437110000000     0.410495   
H7       H      0.959940000000     0.431080000000     0.536380000000    -0.18052    
H8       H      0.064330000000     0.535860000000     0.534850000000    -0.177226   
H9       H      0.458740000000     0.963220000000     0.430100000000    -0.179329   
H10      H      0.554980000000     0.060020000000     0.440450000000     0.416335   
H11      H      0.564000000000     0.960870000000     0.534810000000    -0.174973   
H12      H      0.459100000000     0.065640000000     0.537600000000    -0.185535   
H13      H      0.426820000000     0.534290000000     0.034110000000    -0.181654   
H14      H      0.439380000000     0.437260000000     0.938290000000     0.414301   
H15      H      0.534000000000     0.432220000000     0.037140000000    -0.171727   
H16      H      0.533240000000     0.536510000000     0.931120000000    -0.182789   
H17      H      0.489150000000     0.413860000000     0.175540000000     0.0192568  
H18      H      0.482140000000     0.087090000000     0.325600000000     0.0200846  
H19      H      0.534210000000     0.308110000000     0.252620000000     0.0365435  
H20      H      0.438700000000     0.191480000000     0.245070000000     0.0358282  
H21      H      0.480260000000     0.137050000000     0.272450000000     0.0534883  
H22      H      0.437750000000     0.243230000000     0.191660000000     0.0365648  
H23      H      0.495540000000     0.232240000000     0.360740000000     0.0565125  
H24      H      0.487290000000     0.362300000000     0.228040000000     0.053827   
H25      H      0.482630000000     0.269110000000     0.135740000000     0.0539366  
H26      H      0.535760000000     0.256240000000     0.305500000000     0.0354347  
H27      H      0.484340000000     0.321310000000     0.083720000000     0.0191223  
H28      H      0.468840000000     0.199050000000     0.452130000000     0.033649   
H29      H      0.498250000000     0.676320000000     0.082390000000     0.0189789  
H30      H      0.496810000000     0.825640000000     0.409650000000     0.0207026  
H31      H      0.548010000000     0.753290000000     0.187640000000     0.0366355  
H32      H      0.454680000000     0.745380000000     0.305850000000     0.0361185  
H33      H      0.496980000000     0.772450000000     0.359720000000     0.0538547  
H34      H      0.452440000000     0.692380000000     0.253880000000     0.0364445  
H35      H      0.511350000000     0.861290000000     0.264930000000     0.056713   
H36      H      0.500510000000     0.728840000000     0.134040000000     0.0535053  
H37      H      0.495540000000     0.636350000000     0.227030000000     0.0534882  
H38      H      0.550790000000     0.805940000000     0.239840000000     0.0357378  
H39      H      0.493090000000     0.584470000000     0.174880000000     0.0194365  
H40      H      0.560290000000     0.938880000000     0.304650000000     0.0329529  
H41      H      0.488910000000     0.582480000000     0.820030000000     0.0189675  
H42      H      0.485870000000     0.910650000000     0.671540000000     0.0204489  
H43      H      0.534850000000     0.688070000000     0.743140000000     0.0367588  
H44      H      0.441410000000     0.806320000000     0.751470000000     0.0361151  
H45      H      0.483750000000     0.860380000000     0.724450000000     0.0536205  
H46      H      0.439350000000     0.754110000000     0.804380000000     0.0367399  
H47      H      0.497920000000     0.765590000000     0.635560000000     0.0568157  
H48      H      0.487920000000     0.634250000000     0.767640000000     0.0536943  
H49      H      0.482800000000     0.727150000000     0.860220000000     0.053883   
H50      H      0.537430000000     0.740370000000     0.690710000000     0.0360356  
H51      H      0.483510000000     0.674790000000     0.912040000000     0.0205167  
H52      H      0.548250000000     0.805610000000     0.557120000000     0.0326738  
H53      H      0.504280000000     0.410410000000     0.822400000000     0.0172416  
H54      H      0.515380000000     0.081460000000     0.674630000000     0.0201495  
H55      H      0.553400000000     0.307650000000     0.742630000000     0.0361839  
H56      H      0.475570000000     0.180210000000     0.765210000000     0.0360973  
H57      H      0.520920000000     0.130420000000     0.728970000000     0.0537927  
H58      H      0.475040000000     0.233070000000     0.817330000000     0.0356411  
H59      H      0.500600000000     0.227590000000     0.644070000000     0.0573046  
H60      H      0.508130000000     0.357230000000     0.771590000000     0.0526686  
H61      H      0.515840000000     0.267410000000     0.867100000000     0.0529074  
H62      H      0.553330000000     0.254980000000     0.690330000000     0.0361961  
H63      H      0.510940000000     0.320990000000     0.917100000000     0.0196311  
H64      H      0.521120000000     0.196190000000     0.549540000000     0.0326683  
H65      H      0.672460000000     0.085160000000     0.510730000000     0.0185844  
H66      H      0.824070000000     0.410220000000     0.473580000000     0.0181243  
H67      H      0.758670000000     0.182400000000     0.467340000000     0.035049   
H68      H      0.731510000000     0.318110000000     0.527860000000     0.0362995  
H69      H      0.770570000000     0.359680000000     0.472660000000     0.0540833  
H70      H      0.679130000000     0.265740000000     0.530950000000     0.0356632  
H71      H      0.852540000000     0.271470000000     0.523230000000     0.0573714  
H72      H      0.724330000000     0.137090000000     0.510070000000     0.0527195  
H73      H      0.631710000000     0.228660000000     0.493340000000     0.0522346  
H74      H      0.811470000000     0.234410000000     0.466110000000     0.0360394  
H75      H      0.580520000000     0.176240000000     0.496120000000     0.0170418  
H76      H      0.949700000000     0.301660000000     0.515920000000     0.0272986  
H77      H      0.673900000000     0.913600000000     0.493590000000     0.0180151  
H78      H      0.821440000000     0.584740000000     0.490900000000     0.0211673  
H79      H      0.745410000000     0.805970000000     0.544820000000     0.0363929  
H80      H      0.744340000000     0.690600000000     0.447340000000     0.036077   
H81      H      0.768460000000     0.634990000000     0.487850000000     0.0537036  
H82      H      0.691940000000     0.743070000000     0.442740000000     0.0368821  
H83      H      0.854890000000     0.728390000000     0.517840000000     0.0561042  
H84      H      0.725660000000     0.861220000000     0.494960000000     0.0533657  
H85      H      0.632750000000     0.769350000000     0.484730000000     0.0533327  
H86      H      0.796950000000     0.753140000000     0.550410000000     0.0354938  
H87      H      0.581500000000     0.822290000000     0.483440000000     0.0190233  
H88      H      0.922890000000     0.682280000000     0.576610000000     0.0324555  
H89      H      0.320010000000     0.085960000000     0.490970000000     0.0196134  
H90      H      0.170590000000     0.413690000000     0.509240000000     0.0198911  
H91      H      0.237530000000     0.186560000000     0.536600000000     0.0363809  
H92      H      0.259450000000     0.316330000000     0.462410000000     0.0358924  
H93      H      0.224330000000     0.364070000000     0.510730000000     0.0539106  
H94      H      0.311910000000     0.263870000000     0.460580000000     0.0362221  
H95      H      0.138220000000     0.268990000000     0.486710000000     0.0572454  
H96      H      0.268270000000     0.138220000000     0.491500000000     0.0536181  
H97      H      0.361580000000     0.229940000000     0.501570000000     0.0534276  
H98      H      0.184940000000     0.238750000000     0.537740000000     0.0362685  
H99      H      0.412570000000     0.177170000000     0.499960000000     0.0184959  
H100     H      0.044620000000     0.300030000000     0.510990000000     0.0320777  
H101     H      0.319910000000     0.912660000000     0.493710000000     0.0191673  
H102     H      0.171090000000     0.584690000000     0.505940000000     0.018001   
H103     H      0.247400000000     0.803980000000     0.443550000000     0.0367125  
H104     H      0.250170000000     0.690870000000     0.543580000000     0.036123   
H105     H      0.224570000000     0.634510000000     0.505740000000     0.0530869  
H106     H      0.302890000000     0.743090000000     0.545750000000     0.0371448  
H107     H      0.138140000000     0.727660000000     0.474940000000     0.0568607  
H108     H      0.268210000000     0.860190000000     0.492100000000     0.0534964  
H109     H      0.361270000000     0.768450000000     0.502070000000     0.0537166  
H110     H      0.195470000000     0.751280000000     0.440330000000     0.0356146  
H111     H      0.412450000000     0.821450000000     0.503490000000     0.0214356  
H112     H      0.066240000000     0.680410000000     0.420760000000     0.0362824  
H113     H      0.579090000000     0.504950000000     0.176870000000     0.0193526  
H114     H      0.906900000000     0.484390000000     0.325100000000     0.0211206  
H115     H      0.679520000000     0.458870000000     0.259580000000     0.0361246  
H116     H      0.808780000000     0.533780000000     0.239450000000     0.0363596  
H117     H      0.856570000000     0.483930000000     0.272090000000     0.0542327  
H118     H      0.756230000000     0.537520000000     0.187350000000     0.0363445  
H119     H      0.763030000000     0.504400000000     0.360540000000     0.0567931  
H120     H      0.630720000000     0.503580000000     0.229280000000     0.0528894  
H121     H      0.723140000000     0.498320000000     0.136410000000     0.0533078  
H122     H      0.731860000000     0.455900000000     0.311940000000     0.0359101  
H123     H      0.671150000000     0.501000000000     0.084910000000     0.0200243  
H124     H      0.794720000000     0.476030000000     0.452130000000     0.0310287  
H125     H      0.316870000000     0.481530000000     0.079470000000     0.0198766  
H126     H      0.077480000000     0.489990000000     0.321530000000     0.0160556  
H127     H      0.296650000000     0.546460000000     0.242700000000     0.0367568  
H128     H      0.182720000000     0.447630000000     0.241160000000     0.0352043  
H129     H      0.126460000000     0.487930000000     0.267090000000     0.0527179  
H130     H      0.235450000000     0.443400000000     0.188950000000     0.0366346  
H131     H      0.221530000000     0.515890000000     0.352080000000     0.0561665  
H132     H      0.263070000000     0.482900000000     0.129740000000     0.05379    
H133     H      0.352480000000     0.498660000000     0.224170000000     0.0534153  
H134     H      0.243800000000     0.551370000000     0.294140000000     0.0356706  
H135     H      0.405670000000     0.497320000000     0.173370000000     0.0192828  
H136     H      0.178810000000     0.572070000000     0.423550000000     0.0344473  
H137     H      0.320720000000     0.498520000000     0.908590000000     0.0173824  
H138     H      0.173620000000     0.483050000000     0.579830000000     0.0196378  
H139     H      0.243490000000     0.448630000000     0.805640000000     0.0354776  
H140     H      0.262260000000     0.527820000000     0.678440000000     0.0361329  
H141     H      0.228190000000     0.480390000000     0.628580000000     0.0536857  
H142     H      0.314180000000     0.530930000000     0.731370000000     0.0363714  
H143     H      0.142790000000     0.496190000000     0.725830000000     0.0575162  
H144     H      0.270190000000     0.495480000000     0.855280000000     0.0527262  
H145     H      0.365740000000     0.491910000000     0.765600000000     0.0527779  
H146     H      0.191510000000     0.446040000000     0.752970000000     0.0363168  
H147     H      0.415500000000     0.495990000000     0.819360000000     0.017683   
H148     H      0.050700000000     0.468080000000     0.695230000000     0.0326711  
H149     H      0.673700000000     0.492650000000     0.914860000000     0.0188509  
H150     H      0.823100000000     0.506840000000     0.587750000000     0.021085   
H151     H      0.756450000000     0.536290000000     0.813860000000     0.0358107  
H152     H      0.738820000000     0.456690000000     0.686780000000     0.036356   
H153     H      0.770240000000     0.506470000000     0.638060000000     0.0542606  
H154     H      0.686260000000     0.454070000000     0.738960000000     0.0361229  
H155     H      0.858900000000     0.489450000000     0.732140000000     0.0566711  
H156     H      0.726400000000     0.492360000000     0.863650000000     0.0529458  
H157     H      0.634590000000     0.494470000000     0.770030000000     0.0532341  
H158     H      0.809260000000     0.538160000000     0.761950000000     0.0356464  
H159     H      0.582660000000     0.493500000000     0.821770000000     0.0189114  
H160     H      0.949640000000     0.520420000000     0.699360000000     0.0312438  
H161     H      0.818630000000     0.915090000000     0.993330000000     0.0193028  
H162     H      0.668290000000     0.587560000000     0.011280000000     0.0208704  
H163     H      0.733670000000     0.815530000000     0.038170000000     0.0383073  
H164     H      0.755850000000     0.685200000000     0.965080000000     0.0351731  
H165     H      0.721250000000     0.637830000000     0.012470000000     0.0548964  
H166     H      0.808590000000     0.737300000000     0.963700000000     0.0370598  
H167     H      0.633540000000     0.731950000000     0.990560000000     0.0568571  
H168     H      0.766120000000     0.863580000000     0.993720000000     0.0506494  
H169     H      0.857960000000     0.770650000000     0.005640000000     0.0523985  
H170     H      0.680800000000     0.763580000000     0.039060000000     0.0361952  
H171     H      0.909760000000     0.822660000000     0.004270000000     0.021801   
H172     H      0.541450000000     0.699370000000     0.018160000000     0.0349085  
H173     H      0.674170000000     0.415460000000     0.994450000000     0.0184265  
H174     H      0.823050000000     0.087130000000     0.005680000000     0.0205002  
H175     H      0.755170000000     0.313180000000     0.039820000000     0.035748   
H176     H      0.739530000000     0.187500000000     0.957450000000     0.0368572  
H177     H      0.769930000000     0.137260000000     0.005630000000     0.0550863  
H178     H      0.687210000000     0.240000000000     0.954330000000     0.0350051  
H179     H      0.858620000000     0.232480000000     0.995900000000     0.0566898  
H180     H      0.726750000000     0.363930000000     0.994800000000     0.0526531  
H181     H      0.634630000000     0.270520000000     0.994830000000     0.0532367  
H182     H      0.807610000000     0.260880000000     0.042510000000     0.0380246  
H183     H      0.582890000000     0.322480000000     0.993450000000     0.0189712  
H184     H      0.947000000000     0.199170000000     0.030920000000     0.0356143  
H185     H      0.405990000000     0.673210000000     0.996560000000     0.0188086  
H186     H      0.079640000000     0.822390000000     0.994830000000     0.0131743  
H187     H      0.298240000000     0.741600000000     0.050100000000     0.0363089  
H188     H      0.183900000000     0.743650000000     0.951920000000     0.0375479  
H189     H      0.128470000000     0.768070000000     0.992970000000     0.0561209  
H190     H      0.235910000000     0.690880000000     0.946300000000     0.0358685  
H191     H      0.223200000000     0.852770000000     0.023460000000     0.0579007  
H192     H      0.353170000000     0.724270000000     0.999590000000     0.0531483  
H193     H      0.262850000000     0.630250000000     0.985980000000     0.053657   
H194     H      0.245930000000     0.793570000000     0.056570000000     0.0367489  
H195     H      0.316370000000     0.579550000000     0.983060000000     0.0188689  
H196     H      0.178270000000     0.924410000000     0.079700000000     0.0338268  
H197     H      0.174600000000     0.081780000000     0.990730000000     0.0169705  
H198     H      0.323150000000     0.409570000000     0.010040000000     0.0204565  
H199     H      0.257700000000     0.182200000000     0.035750000000     0.0353239  
H200     H      0.237860000000     0.311340000000     0.959920000000     0.0348926  
H201     H      0.270330000000     0.359050000000     0.010180000000     0.0539315  
H202     H      0.185510000000     0.258910000000     0.957040000000     0.0359053  
H203     H      0.358610000000     0.265470000000     0.988230000000     0.0556639  
H204     H      0.227060000000     0.133330000000     0.991170000000     0.0517965  
H205     H      0.134860000000     0.226490000000     0.997520000000     0.0526058  
H206     H      0.310320000000     0.234390000000     0.037840000000     0.0362007  
H207     H      0.083170000000     0.174500000000     0.995790000000     0.0181715  
H208     H      0.450850000000     0.298140000000     0.015260000000     0.0360485  
H209     H      0.674220000000     0.003950000000     0.583750000000     0.0186535  
H210     H      0.821880000000     0.002170000000     0.912410000000     0.0216767  
H211     H      0.750670000000     0.955580000000     0.688790000000     0.0365517  
H212     H      0.740160000000     0.045950000000     0.809320000000     0.0355442  
H213     H      0.768570000000     0.003480000000     0.862620000000     0.0525786  
H214     H      0.687710000000     0.048660000000     0.756850000000     0.0369655  
H215     H      0.856780000000     0.991960000000     0.767170000000     0.0562835  
H216     H      0.726080000000     0.003820000000     0.636000000000     0.0535625  
H217     H      0.632810000000     0.005410000000     0.727990000000     0.0536261  
H218     H      0.802610000000     0.952260000000     0.741350000000     0.0353221  
H219     H      0.581600000000     0.005810000000     0.675260000000     0.0195026  
H220     H      0.934410000000     0.942130000000     0.804080000000     0.0319413  
H221     H      0.320290000000     0.987650000000     0.585750000000     0.0195058  
H222     H      0.169660000000     0.024830000000     0.911660000000     0.0205953  
H223     H      0.234130000000     0.030470000000     0.683600000000     0.0359081  
H224     H      0.264230000000     0.972320000000     0.819590000000     0.036685   
H225     H      0.223130000000     0.027260000000     0.861130000000     0.0549035  
H226     H      0.316000000000     0.969590000000     0.766670000000     0.0351448  
H227     H      0.143470000000     0.972030000000     0.773760000000     0.0577625  
H228     H      0.268850000000     0.988550000000     0.638140000000     0.0526498  
H229     H      0.362280000000     0.006780000000     0.728470000000     0.0529458  
H230     H      0.181940000000     0.031180000000     0.736180000000     0.0372691  
H231     H      0.412930000000     0.003670000000     0.675730000000     0.0197587  
H232     H      0.046280000000     0.975170000000     0.803470000000     0.0314439  
H233     H      0.319540000000     0.003370000000     0.412660000000     0.0193683  
H234     H      0.170290000000     0.011090000000     0.085070000000     0.0167718  
H235     H      0.246280000000     0.956660000000     0.305190000000     0.0366328  
H236     H      0.249180000000     0.054860000000     0.190490000000     0.0352981  
H237     H      0.223660000000     0.013740000000     0.134850000000     0.0532796  
H238     H      0.301870000000     0.058040000000     0.242750000000     0.0364304  
H239     H      0.137020000000     0.989550000000     0.229480000000     0.0567778  
H240     H      0.267560000000     0.003650000000     0.360630000000     0.0539218  
H241     H      0.360080000000     0.016660000000     0.268780000000     0.0537668  
H242     H      0.194230000000     0.952860000000     0.252810000000     0.0357795  
H243     H      0.411520000000     0.016520000000     0.321420000000     0.0201962  
H244     H      0.065410000000     0.933760000000     0.188250000000     0.0345062  
H245     H      0.672580000000     0.993530000000     0.410920000000     0.0187825  
H246     H      0.821800000000     0.020740000000     0.083460000000     0.020384   
H247     H      0.754890000000     0.045570000000     0.312140000000     0.0356637  
H248     H      0.731300000000     0.977120000000     0.179670000000     0.0361081  
H249     H      0.767800000000     0.023570000000     0.132870000000     0.0541473  
H250     H      0.679020000000     0.974070000000     0.232160000000     0.0359013  
H251     H      0.853390000000     0.999730000000     0.228390000000     0.0552394  
H252     H      0.724010000000     0.997280000000     0.358420000000     0.0504987  
H253     H      0.630220000000     0.015250000000     0.268620000000     0.0524263  
H254     H      0.807170000000     0.048400000000     0.259750000000     0.0357984  
H255     H      0.579600000000     0.011160000000     0.321580000000     0.0166492  
H256     H      0.947090000000     0.023220000000     0.197680000000     0.03205    
H257     H      0.014130000000     0.320470000000     0.581900000000     0.0188514  
H258     H      0.995700000000     0.172390000000     0.909500000000     0.0154619  
H259     H      0.062540000000     0.245280000000     0.691100000000     0.0369921  
H260     H      0.960170000000     0.249420000000     0.801740000000     0.0365129  
H261     H      0.998080000000     0.225080000000     0.858940000000     0.0492098  
H262     H      0.959630000000     0.302020000000     0.749420000000     0.0367986  
H263     H      0.027420000000     0.136070000000     0.767670000000     0.0568539  
H264     H      0.016850000000     0.267870000000     0.633660000000     0.0539978  
H265     H      0.003790000000     0.359820000000     0.726380000000     0.0546729  
H266     H      0.063890000000     0.193150000000     0.743950000000     0.0366412  
H267     H      0.000960000000     0.411620000000     0.674250000000     0.0202307  
H268     H      0.004460000000     0.043100000000     0.799340000000     0.0334807  
H269     H      0.991860000000     0.581990000000     0.676640000000     0.0178602  
H270     H      0.996800000000     0.909490000000     0.825620000000     0.0174705  
H271     H      0.945770000000     0.687760000000     0.753930000000     0.0352241  
H272     H      0.040750000000     0.804870000000     0.747070000000     0.0366456  
H273     H      0.996890000000     0.859180000000     0.772910000000     0.0522126  
H274     H      0.042970000000     0.752790000000     0.694200000000     0.0365203  
H275     H      0.984040000000     0.764780000000     0.862380000000     0.0561195  
H276     H      0.990840000000     0.633370000000     0.729390000000     0.0536269  
H277     H      0.001910000000     0.726770000000     0.637770000000     0.0611753  
H278     H      0.943390000000     0.739900000000     0.806680000000     0.0355714  
H279     H      0.003930000000     0.674760000000     0.585780000000     0.0195072  
H280     H      0.014240000000     0.798610000000     0.952670000000     0.0346154  
H281     H      0.989790000000     0.915870000000     0.177900000000     0.0177353  
H282     H      0.020070000000     0.588650000000     0.326490000000     0.0219717  
H283     H      0.946730000000     0.802850000000     0.248020000000     0.0368059  
H284     H      0.057380000000     0.700380000000     0.253210000000     0.0377551  
H285     H      0.021870000000     0.639930000000     0.274000000000     0.0525944  
H286     H      0.058740000000     0.753400000000     0.201060000000     0.0366155  
H287     H      0.976690000000     0.728550000000     0.359070000000     0.0544378  
H288     H      0.991320000000     0.864130000000     0.230580000000     0.0536645  
H289     H      0.015540000000     0.772890000000     0.139440000000     0.0557656  
H290     H      0.944440000000     0.749310000000     0.299180000000     0.0377634  
H291     H      0.014160000000     0.825120000000     0.087500000000     0.0217047  
H292     H      0.918110000000     0.674890000000     0.423420000000     0.0350984  
H293     H      0.982770000000     0.088560000000     0.172510000000     0.018433   
H294     H      0.006430000000     0.414640000000     0.323460000000     0.0189274  
H295     H      0.933350000000     0.200600000000     0.241280000000     0.0366893  
H296     H      0.040130000000     0.307130000000     0.244110000000     0.0346154  
H297     H      0.005240000000     0.365610000000     0.269070000000     0.0572774  
H298     H      0.041460000000     0.255170000000     0.191000000000     0.0363031  
H299     H      0.964100000000     0.273780000000     0.352750000000     0.0556385  
H300     H      0.979960000000     0.141690000000     0.223510000000     0.0527863  
H301     H      0.999460000000     0.231750000000     0.130140000000     0.0510327  
H302     H      0.931010000000     0.253150000000     0.293520000000     0.0355259  
H303     H      0.002170000000     0.177960000000     0.079620000000     0.0220858  
H304     H      0.979570000000     0.300750000000     0.447590000000     0.0262291  
N1       N      0.491040000000     0.129740000000     0.374770000000    -0.222864   
N2       N      0.487290000000     0.371550000000     0.125610000000    -0.218662   
N3       N      0.504230000000     0.875230000000     0.367170000000    -0.218838   
N4       N      0.495540000000     0.626370000000     0.124610000000    -0.215798   
N5       N      0.494000000000     0.868220000000     0.622080000000    -0.216515   
N6       N      0.486730000000     0.624630000000     0.870050000000    -0.218177   
N7       N      0.504810000000     0.125480000000     0.627140000000    -0.219223   
N8       N      0.507000000000     0.369840000000     0.873630000000    -0.221073   
N9       N      0.869480000000     0.370520000000     0.498710000000    -0.220001   
N10      N      0.622530000000     0.126630000000     0.503210000000    -0.221303   
N11      N      0.869360000000     0.626640000000     0.506270000000    -0.216526   
N12      N      0.623690000000     0.871990000000     0.489000000000    -0.217757   
N13      N      0.122420000000     0.370840000000     0.497230000000    -0.221806   
N14      N      0.370240000000     0.127490000000     0.495550000000    -0.218302   
N15      N      0.123280000000     0.626360000000     0.489650000000    -0.218534   
N16      N      0.370170000000     0.871130000000     0.498440000000    -0.214761   
N17      N      0.865000000000     0.494880000000     0.374420000000    -0.21799    
N18      N      0.621040000000     0.502860000000     0.126860000000    -0.215011   
N19      N      0.120380000000     0.504540000000     0.368810000000    -0.220909   
N20      N      0.365390000000     0.489910000000     0.122440000000    -0.21691    
N21      N      0.125780000000     0.491230000000     0.623860000000    -0.218438   
N22      N      0.371990000000     0.497230000000     0.868170000000    -0.221174   
N23      N      0.872600000000     0.498310000000     0.629910000000    -0.216644   
N24      N      0.624150000000     0.493410000000     0.872310000000    -0.218418   
N25      N      0.619270000000     0.629710000000     0.000260000000    -0.214257   
N26      N      0.868250000000     0.872930000000     0.998790000000    -0.215631   
N27      N      0.872570000000     0.129870000000     0.000740000000    -0.217274   
N28      N      0.624510000000     0.373000000000     0.994260000000    -0.218301   
N29      N      0.122370000000     0.869690000000     0.010240000000    -0.221068   
N30      N      0.365240000000     0.622390000000     0.990230000000    -0.217971   
N31      N      0.372330000000     0.367620000000     0.998930000000    -0.223477   
N32      N      0.124880000000     0.124110000000     0.993460000000    -0.221074   
N33      N      0.871070000000     0.995700000000     0.869560000000    -0.21518    
N34      N      0.623930000000     0.004430000000     0.625430000000    -0.217685   
N35      N      0.125280000000     0.997190000000     0.872360000000    -0.219599   
N36      N      0.370540000000     0.995710000000     0.626620000000    -0.215692   
N37      N      0.122220000000     0.997650000000     0.127500000000    -0.222567   
N38      N      0.369550000000     0.009360000000     0.371050000000    -0.217606   
N39      N      0.869550000000     0.008630000000     0.126590000000    -0.218068   
N40      N      0.622120000000     0.001730000000     0.370320000000    -0.219472   
N41      N      0.010340000000     0.123080000000     0.868750000000    -0.218599   
N42      N      0.007110000000     0.370030000000     0.624040000000    -0.217606   
N43      N      0.990660000000     0.867350000000     0.875530000000    -0.217214   
N44      N      0.997350000000     0.624440000000     0.627130000000    -0.220465   
N45      N      0.996690000000     0.628180000000     0.373160000000    -0.22167    
N46      N      0.001890000000     0.874460000000     0.128790000000    -0.218107   
N47      N      0.985630000000     0.373420000000     0.369970000000    -0.220843   
N48      N      0.992460000000     0.129160000000     0.122110000000    -0.218976   
O1       O      0.995760000000     0.109710000000     0.053810000000    -0.620056   
O2       O      0.999010000000     0.890890000000     0.060040000000    -0.585868   
O3       O      0.938260000000     0.007390000000     0.108070000000    -0.615284   
O4       O      0.053570000000     0.998910000000     0.108470000000    -0.627491   
O5       O      0.105250000000     0.996730000000     0.058230000000    -0.623033   
O6       O      0.887150000000     0.004630000000     0.057380000000    -0.563161   
O7       O      0.999340000000     0.943180000000     0.110200000000    -0.615803   
O8       O      0.993350000000     0.059800000000     0.106330000000    -0.624667   
O9       O      0.036130000000     0.959670000000     0.040430000000    -1.46622    
O10      O      0.957340000000     0.040720000000     0.037490000000    -1.45862    
O11      O      0.949600000000     0.954420000000     0.041220000000    -1.06154    
O12      O      0.038730000000     0.040920000000     0.039750000000    -1.6284     
O13      O      0.993760000000     0.887710000000     0.943890000000    -0.576033   
O14      O      0.005100000000     0.106990000000     0.937900000000    -0.603547   
O15      O      0.886400000000     0.941840000000     0.997800000000    -0.563924   
O16      O      0.105610000000     0.939060000000     0.006410000000    -0.610145   
O17      O      0.106780000000     0.055310000000     0.995490000000    -0.62794    
O18      O      0.888770000000     0.060180000000     0.999390000000    -0.574183   
O19      O      0.939720000000     0.996240000000     0.888920000000    -0.566519   
O20      O      0.056450000000     0.996090000000     0.889990000000    -0.568152   
O21      O      0.887940000000     0.997720000000     0.939010000000    -0.561624   
O22      O      0.107280000000     0.000090000000     0.941180000000    -0.604642   
O23      O      0.937050000000     0.890040000000     0.000480000000    -0.561168   
O24      O      0.940960000000     0.109770000000     0.000220000000    -0.611782   
O25      O      0.056180000000     0.107130000000     0.994350000000    -0.625055   
O26      O      0.053990000000     0.888700000000     0.005350000000    -0.565704   
O27      O      0.994020000000     0.937010000000     0.891270000000    -0.563899   
O28      O      0.003170000000     0.054610000000     0.888230000000    -0.564644   
O29      O      0.038000000000     0.037160000000     0.958360000000    -1.45893    
O30      O      0.956820000000     0.958770000000     0.959990000000    -1.37012    
O31      O      0.951820000000     0.039940000000     0.951100000000    -1.05793    
O32      O      0.038130000000     0.950580000000     0.954320000000    -1.05319    
O33      O      0.990530000000     0.390320000000     0.439180000000    -0.623971   
O34      O      0.996690000000     0.608710000000     0.441490000000    -0.575937   
O35      O      0.934580000000     0.495610000000     0.390240000000    -0.601137   
O36      O      0.051660000000     0.502680000000     0.387910000000    -0.615345   
O37      O      0.103550000000     0.501680000000     0.438040000000    -0.62937    
O38      O      0.885410000000     0.496430000000     0.442870000000    -0.576135   
O39      O      0.997680000000     0.558720000000     0.389310000000    -0.608798   
O40      O      0.990120000000     0.442030000000     0.388590000000    -0.627115   
O41      O      0.035280000000     0.538780000000     0.457910000000    -1.4565     
O42      O      0.955280000000     0.459040000000     0.458990000000    -1.45912    
O43      O      0.948880000000     0.545410000000     0.458840000000    -1.05602    
O44      O      0.036520000000     0.457490000000     0.455280000000    -1.62324    
O45      O      0.997230000000     0.607600000000     0.558160000000    -0.566798   
O46      O      0.003630000000     0.388040000000     0.555280000000    -0.601178   
O47      O      0.886770000000     0.557430000000     0.503780000000    -0.563805   
O48      O      0.105800000000     0.557170000000     0.491860000000    -0.608869   
O49      O      0.105020000000     0.440110000000     0.497570000000    -0.626034   
O50      O      0.886820000000     0.439550000000     0.498450000000    -0.570389   
O51      O      0.940910000000     0.498610000000     0.609530000000    -0.569875   
O52      O      0.056950000000     0.494390000000     0.606220000000    -0.57738    
O53      O      0.888380000000     0.498950000000     0.560290000000    -0.56488    
O54      O      0.107180000000     0.493220000000     0.554740000000    -0.605795   
O55      O      0.938090000000     0.608230000000     0.503170000000    -0.562106   
O56      O      0.938060000000     0.388550000000     0.496390000000    -0.613607   
O57      O      0.053690000000     0.389480000000     0.498050000000    -0.628311   
O58      O      0.054680000000     0.608010000000     0.494970000000    -0.565325   
O59      O      0.997350000000     0.555740000000     0.608820000000    -0.567751   
O60      O      0.001830000000     0.438760000000     0.607000000000    -0.56947    
O61      O      0.037180000000     0.458000000000     0.536820000000    -1.46471    
O62      O      0.957340000000     0.538040000000     0.539890000000    -1.37201    
O63      O      0.951200000000     0.456530000000     0.545510000000    -1.06198    
O64      O      0.038920000000     0.544330000000     0.544250000000    -1.05936    
O65      O      0.605350000000     0.998680000000     0.439440000000    -0.62376    
O66      O      0.387120000000     0.003640000000     0.439730000000    -0.567017   
O67      O      0.501290000000     0.943990000000     0.386980000000    -0.61731    
O68      O      0.493110000000     0.060200000000     0.390750000000    -0.629002   
O69      O      0.492990000000     0.109610000000     0.443210000000    -0.637891   
O70      O      0.500040000000     0.891600000000     0.436480000000    -0.571145   
O71      O      0.438200000000     0.007360000000     0.388600000000    -0.613122   
O72      O      0.553710000000     0.000860000000     0.388700000000    -0.630389   
O73      O      0.456510000000     0.040330000000     0.459330000000    -1.47691    
O74      O      0.536650000000     0.960650000000     0.456920000000    -1.46887    
O75      O      0.450240000000     0.953970000000     0.455610000000    -1.06024    
O76      O      0.537940000000     0.041950000000     0.457480000000    -1.64901    
O77      O      0.387330000000     0.996260000000     0.557440000000    -0.561382   
O78      O      0.606560000000     0.003200000000     0.556420000000    -0.607103   
O79      O      0.438700000000     0.889290000000     0.497480000000    -0.565398   
O80      O      0.438700000000     0.109400000000     0.496760000000    -0.617929   
O81      O      0.554030000000     0.108610000000     0.502180000000    -0.632611   
O82      O      0.555160000000     0.889850000000     0.492140000000    -0.57222    
O83      O      0.495570000000     0.937920000000     0.606220000000    -0.564541   
O84      O      0.500350000000     0.056420000000     0.608710000000    -0.564886   
O85      O      0.495270000000     0.888510000000     0.553630000000    -0.568521   
O86      O      0.502530000000     0.107810000000     0.558200000000    -0.625811   
O87      O      0.387220000000     0.940280000000     0.498420000000    -0.56347    
O88      O      0.606400000000     0.941010000000     0.492020000000    -0.611799   
O89      O      0.605450000000     0.057580000000     0.501970000000    -0.625278   
O90      O      0.387350000000     0.058350000000     0.496850000000    -0.567207   
O91      O      0.438950000000     0.996430000000     0.608280000000    -0.569922   
O92      O      0.555490000000     0.000500000000     0.607630000000    -0.574219   
O93      O      0.536810000000     0.038510000000     0.538760000000    -1.47379    
O94      O      0.457180000000     0.958620000000     0.537220000000    -1.36594    
O95      O      0.538340000000     0.952040000000     0.543180000000    -1.05999    
O96      O      0.450510000000     0.039720000000     0.545620000000    -1.05765    
O97      O      0.440580000000     0.387910000000     0.000150000000    -0.623715   
O98      O      0.434140000000     0.606220000000     0.994180000000    -0.570788   
O99      O      0.384550000000     0.490630000000     0.054020000000    -0.608227   
O100     O      0.387720000000     0.497760000000     0.937590000000    -0.623093   
O101     O      0.440040000000     0.498210000000     0.887560000000    -0.637236   
O102     O      0.434430000000     0.495080000000     0.106310000000    -0.567412   
O103     O      0.384290000000     0.553820000000     0.990790000000    -0.611652   
O104     O      0.388100000000     0.437260000000     0.998470000000    -0.626197   
O105     O      0.455190000000     0.536780000000     0.956880000000    -1.46836    
O106     O      0.455620000000     0.457630000000     0.037510000000    -1.46582    
O107     O      0.451900000000     0.543860000000     0.043290000000    -1.05279    
O108     O      0.455750000000     0.455340000000     0.955960000000    -1.64301    
O109     O      0.550840000000     0.609420000000     0.999250000000    -0.567542   
O110     O      0.555760000000     0.389680000000     0.995320000000    -0.616259   
O111     O      0.494090000000     0.557450000000     0.107450000000    -0.573268   
O112     O      0.490790000000     0.555830000000     0.887850000000    -0.61394    
O113     O      0.502010000000     0.439110000000     0.889730000000    -0.62666    
O114     O      0.491250000000     0.440270000000     0.107830000000    -0.576893   
O115     O      0.604050000000     0.502300000000     0.058010000000    -0.567523   
O116     O      0.605700000000     0.497140000000     0.940890000000    -0.570044   
O117     O      0.552270000000     0.501470000000     0.108690000000    -0.561122   
O118     O      0.555340000000     0.494160000000     0.889020000000    -0.620023   
O119     O      0.494220000000     0.608390000000     0.055850000000    -0.561823   
O120     O      0.491200000000     0.388780000000     0.056850000000    -0.611904   
O121     O      0.502510000000     0.388680000000     0.941790000000    -0.630165   
O122     O      0.490010000000     0.607350000000     0.938830000000    -0.570343   
O123     O      0.603300000000     0.559990000000     0.000340000000    -0.559973   
O124     O      0.605990000000     0.441780000000     0.997010000000    -0.567645   
O125     O      0.536850000000     0.458970000000     0.959000000000    -1.47381    
O126     O      0.533580000000     0.539260000000     0.038260000000    -1.36388    
O127     O      0.541800000000     0.458300000000     0.045500000000    -1.06233    
O128     O      0.541160000000     0.545480000000     0.956920000000    -1.05661    
S1       S      0.504830000000     0.190690000000     0.433020000000    -0.0392459  
S2       S      0.519120000000     0.933650000000     0.306830000000    -0.0302865  
S3       S      0.507190000000     0.807460000000     0.563480000000    -0.0318724  
S4       S      0.486790000000     0.187750000000     0.571510000000    -0.0320957  
S5       S      0.921010000000     0.318320000000     0.540980000000    -0.0312686  
S6       S      0.924470000000     0.684420000000     0.535030000000    -0.0309183  
S7       S      0.065940000000     0.310400000000     0.476740000000    -0.0389622  
S8       S      0.067340000000     0.684030000000     0.462260000000    -0.0217923  
S9       S      0.805030000000     0.511470000000     0.432750000000    -0.0340464  
S10      S      0.180080000000     0.530380000000     0.423510000000    -0.0297481  
S11      S      0.069420000000     0.504360000000     0.686750000000    -0.0275984  
S12      S      0.931310000000     0.484110000000     0.690160000000    -0.0345352  
S13      S      0.561340000000     0.689830000000     0.982820000000    -0.0350859  
S14      S      0.931440000000     0.191320000000     0.993100000000    -0.0394199  
S15      S      0.181170000000     0.924270000000     0.038130000000    -0.0271395  
S16      S      0.430520000000     0.308140000000     0.980310000000    -0.0439395  
S17      S      0.929000000000     0.983250000000     0.808200000000    -0.0373086  
S18      S      0.076060000000     0.951750000000     0.820610000000    -0.0295437  
S19      S      0.065990000000     0.975440000000     0.187270000000    -0.0283333  
S20      S      0.925710000000     0.988880000000     0.187610000000    -0.0354668  
S21      S      0.037090000000     0.065330000000     0.812510000000    -0.0253718  
S22      S      0.977700000000     0.807140000000     0.934670000000    -0.0378241  
S23      S      0.958950000000     0.681970000000     0.426980000000    -0.0274311  
S24      S      0.950400000000     0.317800000000     0.423350000000    -0.0216998  


