data_structure

_audit_creation_method RASPA-1.0
_audit_creation_date 2023-5-19
_audit_author_name 'Poobodin Mano'

_cell_length_a    20.6999
_cell_length_b    20.6894
_cell_length_c    20.6931
_cell_angle_alpha 90
_cell_angle_beta  90
_cell_angle_gamma 90
_cell_volume      8862.2

_symmetry_cell_setting          triclinic
_symmetry_space_group_name_Hall 'P 1'
_symmetry_space_group_name_H-M  'P 1'
_symmetry_Int_Tables_number     1

_symmetry_equiv_pos_as_xyz 'x,y,z'

loop_
_atom_site_label
_atom_site_type_symbol
_atom_site_fract_x
_atom_site_fract_y
_atom_site_fract_z
_atom_site_charge
C1       C      0.989200000000     0.150660000000     0.155570000000     0.499209   
C2       C      0.008070000000     0.840370000000     0.152020000000     0.51548    
C3       C      0.840480000000     0.000790000000     0.153410000000     0.517902   
C4       C      0.150370000000     0.993830000000     0.155370000000     0.512012   
C5       C      0.994990000000     0.845240000000     0.841230000000     0.508058   
C6       C      0.007550000000     0.155030000000     0.846220000000     0.507085   
C7       C      0.843160000000     0.841710000000     0.995090000000     0.495005   
C8       C      0.154760000000     0.844490000000     0.003980000000     0.518227   
C9       C      0.150560000000     0.154510000000     0.998270000000     0.513857   
C10      C      0.841910000000     0.152960000000     0.004560000000     0.521101   
C11      C      0.843360000000     0.998250000000     0.842850000000     0.496937   
C12      C      0.153650000000     0.006910000000     0.844550000000     0.518382   
C13      C      0.989440000000     0.340000000000     0.346750000000     0.51048    
C14      C      0.007760000000     0.650510000000     0.341600000000     0.506814   
C15      C      0.841950000000     0.489430000000     0.343870000000     0.507922   
C16      C      0.150890000000     0.497620000000     0.343260000000     0.505164   
C17      C      0.994230000000     0.654430000000     0.652260000000     0.496362   
C18      C      0.007580000000     0.344560000000     0.656580000000     0.519399   
C19      C      0.843310000000     0.653390000000     0.498520000000     0.498342   
C20      C      0.153850000000     0.651610000000     0.491120000000     0.507729   
C21      C      0.151370000000     0.342220000000     0.502700000000     0.503912   
C22      C      0.841620000000     0.342620000000     0.494940000000     0.503969   
C23      C      0.842370000000     0.499500000000     0.654310000000     0.507275   
C24      C      0.154840000000     0.493490000000     0.652630000000     0.518657   
C25      C      0.651020000000     0.994960000000     0.343600000000     0.502354   
C26      C      0.341380000000     0.001420000000     0.344050000000     0.506663   
C27      C      0.506580000000     0.842110000000     0.343990000000     0.508777   
C28      C      0.487730000000     0.151320000000     0.343660000000     0.505359   
C29      C      0.343800000000     0.997380000000     0.655420000000     0.494964   
C30      C      0.654800000000     0.005940000000     0.652170000000     0.518278   
C31      C      0.344200000000     0.840510000000     0.501230000000     0.508261   
C32      C      0.340570000000     0.151820000000     0.494170000000     0.517579   
C33      C      0.651820000000     0.152700000000     0.499480000000     0.512687   
C34      C      0.654820000000     0.844290000000     0.492530000000     0.519736   
C35      C      0.493850000000     0.843190000000     0.654710000000     0.496122   
C36      C      0.506610000000     0.154660000000     0.652770000000     0.506399   
C37      C      0.341560000000     0.343550000000     0.001120000000     0.501476   
C38      C      0.342910000000     0.653470000000     0.994570000000     0.508124   
C39      C      0.339420000000     0.490400000000     0.152500000000     0.518769   
C40      C      0.343640000000     0.501960000000     0.843500000000     0.502677   
C41      C      0.654180000000     0.650820000000     0.002180000000     0.50682    
C42      C      0.650760000000     0.340530000000     0.994310000000     0.509878   
C43      C      0.503550000000     0.650650000000     0.156050000000     0.508808   
C44      C      0.490800000000     0.653850000000     0.845160000000     0.518059   
C45      C      0.504290000000     0.343180000000     0.844030000000     0.516349   
C46      C      0.485710000000     0.339690000000     0.152520000000     0.517402   
C47      C      0.650540000000     0.494840000000     0.156080000000     0.509029   
C48      C      0.653200000000     0.491230000000     0.844680000000     0.506888   
C49      C      0.484670000000     0.262010000000     0.311640000000     0.0279688  
C50      C      0.481990000000     0.180400000000     0.232460000000    -0.0266696  
C51      C      0.483960000000     0.309000000000     0.263240000000     0.0387727  
C52      C      0.481570000000     0.227200000000     0.183650000000     0.20376    
C53      C      0.508460000000     0.809940000000     0.233360000000     0.0324599  
C54      C      0.509940000000     0.730820000000     0.315060000000    -0.0224725  
C55      C      0.507440000000     0.761440000000     0.186480000000     0.0411504  
C56      C      0.509440000000     0.681950000000     0.268360000000     0.206482   
C57      C      0.489780000000     0.732350000000     0.686330000000     0.0283818  
C58      C      0.490750000000     0.813610000000     0.765900000000    -0.0247977  
C59      C      0.488640000000     0.685120000000     0.734540000000     0.0434535  
C60      C      0.490150000000     0.766570000000     0.814490000000     0.204744   
C61      C      0.509150000000     0.265650000000     0.684580000000     0.0305927  
C62      C      0.509160000000     0.184100000000     0.763820000000    -0.0250681  
C63      C      0.508240000000     0.312720000000     0.733070000000     0.0391555  
C64      C      0.507780000000     0.230810000000     0.812580000000     0.201828   
C65      C      0.730500000000     0.311610000000     0.497730000000     0.0274066  
C66      C      0.811280000000     0.231790000000     0.492150000000    -0.0257704  
C67      C      0.683100000000     0.263490000000     0.499390000000     0.0381809  
C68      C      0.764180000000     0.183420000000     0.492970000000     0.198398   
C69      C      0.732640000000     0.685300000000     0.496830000000     0.0313339  
C70      C      0.814130000000     0.764600000000     0.494320000000    -0.0240731  
C71      C      0.685640000000     0.733620000000     0.494580000000     0.0440655  
C72      C      0.767330000000     0.813320000000     0.492410000000     0.208118   
C73      C      0.262110000000     0.310620000000     0.498120000000     0.0283276  
C74      C      0.180990000000     0.231000000000     0.501210000000    -0.0256195  
C75      C      0.309260000000     0.262440000000     0.495000000000     0.043119   
C76      C      0.227960000000     0.182420000000     0.498620000000     0.204406   
C77      C      0.185510000000     0.762400000000     0.493130000000     0.0310042  
C78      C      0.264960000000     0.681020000000     0.494180000000    -0.02262    
C79      C      0.233650000000     0.809510000000     0.496800000000     0.0414842  
C80      C      0.313440000000     0.727910000000     0.498590000000     0.203522   
C81      C      0.809760000000     0.490460000000     0.233290000000     0.0338593  
C82      C      0.730710000000     0.487170000000     0.314990000000    -0.0245129  
C83      C      0.761280000000     0.492640000000     0.186480000000     0.042075   
C84      C      0.681860000000     0.488430000000     0.268340000000     0.202457   
C85      C      0.261570000000     0.496330000000     0.311380000000     0.0300887  
C86      C      0.180130000000     0.491170000000     0.232170000000    -0.0270039  
C87      C      0.308610000000     0.493580000000     0.263140000000     0.0418307  
C88      C      0.227000000000     0.487720000000     0.183590000000     0.204254   
C89      C      0.232880000000     0.499430000000     0.811600000000     0.0300057  
C90      C      0.314280000000     0.498890000000     0.732240000000    -0.0270605  
C91      C      0.185800000000     0.496440000000     0.763330000000     0.0421816  
C92      C      0.267400000000     0.496230000000     0.683570000000     0.204489   
C93      C      0.764260000000     0.494410000000     0.813440000000     0.0290789  
C94      C      0.683220000000     0.490570000000     0.733780000000    -0.0232759  
C95      C      0.811470000000     0.497290000000     0.765180000000     0.03968    
C96      C      0.730100000000     0.493020000000     0.685270000000     0.203251   
C97      C      0.732380000000     0.809840000000     0.997710000000     0.0282963  
C98      C      0.813710000000     0.730390000000     0.996370000000    -0.0242666  
C99      C      0.685270000000     0.761550000000     0.000130000000     0.0413296  
C100     C      0.766770000000     0.681710000000     0.998370000000     0.204495   
C101     C      0.682610000000     0.229740000000     0.996150000000     0.032959   
C102     C      0.761630000000     0.311550000000     0.998610000000    -0.0254593  
C103     C      0.731070000000     0.182930000000     0.999930000000     0.0414424  
C104     C      0.810350000000     0.265100000000     0.002070000000     0.206392   
C105     C      0.232340000000     0.685680000000     0.993840000000     0.0329786  
C106     C      0.313890000000     0.764540000000     0.002080000000    -0.0227429  
C107     C      0.185380000000     0.733930000000     0.997470000000     0.0400584  
C108     C      0.267100000000     0.813120000000     0.006410000000     0.206708   
C109     C      0.309600000000     0.232720000000     0.999670000000     0.0271389  
C110     C      0.230260000000     0.314130000000     0.001470000000    -0.0276894  
C111     C      0.261280000000     0.185590000000     0.998600000000     0.0396734  
C112     C      0.181540000000     0.267180000000     0.000910000000     0.201039   
C113     C      0.732720000000     0.999640000000     0.810960000000     0.0279592  
C114     C      0.814150000000     0.004990000000     0.731760000000    -0.0245374  
C115     C      0.685670000000     0.002570000000     0.762760000000     0.0445955  
C116     C      0.767270000000     0.008580000000     0.683200000000     0.207359   
C117     C      0.312590000000     0.001050000000     0.766470000000     0.0310897  
C118     C      0.233050000000     0.003810000000     0.685250000000    -0.0261179  
C119     C      0.264450000000     0.004580000000     0.813730000000     0.0435544  
C120     C      0.184710000000     0.008130000000     0.732170000000     0.203893   
C121     C      0.309270000000     0.001420000000     0.233320000000     0.0326403  
C122     C      0.230150000000     0.996880000000     0.314840000000    -0.0249724  
C123     C      0.261000000000     0.998480000000     0.186260000000     0.0365836  
C124     C      0.181520000000     0.993370000000     0.267960000000     0.203229   
C125     C      0.761840000000     0.998290000000     0.312130000000     0.0263809  
C126     C      0.680770000000     0.995950000000     0.232450000000    -0.026913   
C127     C      0.809090000000     0.000490000000     0.264010000000     0.044434   
C128     C      0.727820000000     0.997640000000     0.183940000000     0.203097   
C129     C      0.011240000000     0.186310000000     0.735510000000     0.0287203  
C130     C      0.012500000000     0.266120000000     0.816570000000    -0.0240561  
C131     C      0.011360000000     0.234250000000     0.688170000000     0.043216   
C132     C      0.012050000000     0.314530000000     0.769360000000     0.204551   
C133     C      0.992530000000     0.686440000000     0.762910000000     0.0302614  
C134     C      0.993370000000     0.765850000000     0.681490000000    -0.0244628  
C135     C      0.992830000000     0.734680000000     0.810020000000     0.0417926  
C136     C      0.994140000000     0.814540000000     0.728470000000     0.205912   
C137     C      0.010410000000     0.761350000000     0.310360000000     0.0306483  
C138     C      0.014960000000     0.680420000000     0.230570000000    -0.0220467  
C139     C      0.010670000000     0.808780000000     0.262430000000     0.0424752  
C140     C      0.015770000000     0.727770000000     0.182210000000     0.2048     
C141     C      0.987860000000     0.261490000000     0.187680000000     0.0271548  
C142     C      0.985240000000     0.180140000000     0.267030000000    -0.0265279  
C143     C      0.987840000000     0.308700000000     0.236000000000     0.0391553  
C144     C      0.984730000000     0.227240000000     0.315780000000     0.2021     
Eu1      Eu     0.995440000000     0.995420000000     0.113610000000     3.45576    
Eu2      Eu     0.998480000000     0.882870000000     0.997480000000     3.03917    
Eu3      Eu     0.995900000000     0.112270000000     0.999820000000     3.49233    
Eu4      Eu     0.882240000000     0.997300000000     0.998350000000     3.04369    
Eu5      Eu     0.112130000000     0.998230000000     0.999050000000     3.50862    
Eu6      Eu     0.998310000000     0.999600000000     0.884200000000     3.06363    
Eu7      Eu     0.996010000000     0.496670000000     0.384210000000     3.47263    
Eu8      Eu     0.998230000000     0.612470000000     0.497220000000     3.03065    
Eu9      Eu     0.996200000000     0.382920000000     0.501460000000     3.47353    
Eu10     Eu     0.882590000000     0.497800000000     0.499120000000     3.058      
Eu11     Eu     0.111930000000     0.497670000000     0.498950000000     3.52885    
Eu12     Eu     0.998250000000     0.498920000000     0.614160000000     3.04595    
Eu13     Eu     0.495630000000     0.996210000000     0.384320000000     3.47701    
Eu14     Eu     0.382650000000     0.996730000000     0.499530000000     3.03986    
Eu15     Eu     0.611520000000     0.997780000000     0.498770000000     3.50403    
Eu16     Eu     0.498760000000     0.882540000000     0.499380000000     3.05951    
Eu17     Eu     0.495760000000     0.112670000000     0.499150000000     3.49069    
Eu18     Eu     0.498620000000     0.998530000000     0.614110000000     3.04479    
Eu19     Eu     0.382650000000     0.498910000000     0.999070000000     3.48923    
Eu20     Eu     0.498040000000     0.612150000000     0.000310000000     3.04328    
Eu21     Eu     0.497040000000     0.382690000000     0.999230000000     3.49653    
Eu22     Eu     0.495700000000     0.495850000000     0.114440000000     3.06499    
Eu23     Eu     0.498800000000     0.498820000000     0.884600000000     3.48196    
Eu24     Eu     0.612030000000     0.496080000000     0.000030000000     3.06882    
H1       H      0.937470000000     0.935720000000     0.104790000000    -0.170098   
H2       H      0.089320000000     0.091380000000     0.094970000000     0.415608   
H3       H      0.938070000000     0.105150000000     0.940150000000    -0.179358   
H4       H      0.104800000000     0.940360000000     0.939770000000    -0.18998    
H5       H      0.937900000000     0.556320000000     0.391290000000    -0.174336   
H6       H      0.089680000000     0.401660000000     0.405610000000     0.416535   
H7       H      0.937850000000     0.391430000000     0.560840000000    -0.170207   
H8       H      0.104420000000     0.556900000000     0.556790000000    -0.195207   
H9       H      0.437840000000     0.936650000000     0.392820000000    -0.177335   
H10      H      0.589040000000     0.091990000000     0.403500000000     0.41432    
H11      H      0.604930000000     0.939440000000     0.557910000000    -0.184356   
H12      H      0.437890000000     0.104410000000     0.558650000000    -0.181296   
H13      H      0.390640000000     0.556730000000     0.058360000000    -0.185935   
H14      H      0.403860000000     0.404330000000     0.903900000000     0.414795   
H15      H      0.554970000000     0.389370000000     0.058870000000    -0.178375   
H16      H      0.557570000000     0.557330000000     0.893420000000    -0.178404   
H17      H      0.484740000000     0.359090000000     0.278600000000     0.0339892  
H18      H      0.486010000000     0.278380000000     0.361390000000     0.0334213  
H19      H      0.480870000000     0.130080000000     0.217790000000     0.0590508  
H20      H      0.524970000000     0.199970000000     0.107780000000     0.148092   
H21      H      0.506320000000     0.776740000000     0.136390000000     0.0348009  
H22      H      0.508070000000     0.859710000000     0.216950000000     0.0357058  
H23      H      0.511130000000     0.716190000000     0.365380000000     0.0666418  
H24      H      0.557700000000     0.608130000000     0.292510000000     0.163116   
H25      H      0.487710000000     0.635100000000     0.718980000000     0.0335901  
H26      H      0.489620000000     0.716210000000     0.636490000000     0.0365176  
H27      H      0.491330000000     0.863850000000     0.780820000000     0.0604427  
H28      H      0.535970000000     0.792170000000     0.889500000000     0.147693   
H29      H      0.508100000000     0.362860000000     0.717850000000     0.0324566  
H30      H      0.509430000000     0.281890000000     0.634770000000     0.035095   
H31      H      0.509680000000     0.133810000000     0.778630000000     0.0599111  
H32      H      0.461550000000     0.203520000000     0.886740000000     0.143349   
H33      H      0.633190000000     0.279060000000     0.502600000000     0.0309283  
H34      H      0.714680000000     0.361530000000     0.499680000000     0.034943   
H35      H      0.861350000000     0.216660000000     0.489220000000     0.0589945  
H36      H      0.786460000000     0.110730000000     0.441960000000     0.143534   
H37      H      0.635590000000     0.718200000000     0.494690000000     0.0367266  
H38      H      0.716350000000     0.635530000000     0.498510000000     0.0432542  
H39      H      0.864410000000     0.779360000000     0.493960000000     0.0628494  
H40      H      0.793160000000     0.889620000000     0.535920000000     0.161471   
H41      H      0.359190000000     0.278050000000     0.492550000000     0.0332746  
H42      H      0.278220000000     0.360480000000     0.497740000000     0.0404352  
H43      H      0.130820000000     0.216050000000     0.503430000000     0.064583   
H44      H      0.204410000000     0.107300000000     0.545350000000     0.148727   
H45      H      0.218130000000     0.859560000000     0.497280000000     0.0361396  
H46      H      0.135730000000     0.778600000000     0.491400000000     0.0375029  
H47      H      0.279820000000     0.630750000000     0.493680000000     0.0594375  
H48      H      0.385200000000     0.701230000000     0.548690000000     0.147195   
H49      H      0.776550000000     0.494980000000     0.136420000000     0.0419233  
H50      H      0.859480000000     0.491390000000     0.216870000000     0.0387651  
H51      H      0.716140000000     0.484840000000     0.365280000000     0.0606687  
H52      H      0.608230000000     0.439340000000     0.291660000000     0.148531   
H53      H      0.358650000000     0.495050000000     0.278530000000     0.0404471  
H54      H      0.277830000000     0.499440000000     0.361090000000     0.0380604  
H55      H      0.129870000000     0.489700000000     0.217430000000     0.0581986  
H56      H      0.202420000000     0.435250000000     0.112760000000     0.147992   
H57      H      0.135770000000     0.495450000000     0.778790000000     0.0417945  
H58      H      0.216610000000     0.500530000000     0.861390000000     0.0383555  
H59      H      0.364530000000     0.499660000000     0.717420000000     0.05754    
H60      H      0.291910000000     0.541090000000     0.607630000000     0.146173   
H61      H      0.861440000000     0.500000000000     0.780640000000     0.0323546  
H62      H      0.780220000000     0.495210000000     0.863330000000     0.0350063  
H63      H      0.633100000000     0.487900000000     0.718730000000     0.059557   
H64      H      0.707140000000     0.445000000000     0.610780000000     0.148196   
H65      H      0.635260000000     0.777060000000     0.001630000000     0.0324313  
H66      H      0.716160000000     0.859660000000     0.997580000000     0.0351467  
H67      H      0.863940000000     0.715550000000     0.995010000000     0.0649922  
H68      H      0.790910000000     0.606510000000     0.952070000000     0.148365   
H69      H      0.715960000000     0.132760000000     0.000300000000     0.0413566  
H70      H      0.632900000000     0.213370000000     0.994040000000     0.042479   
H71      H      0.776350000000     0.361870000000     0.998440000000     0.0615761  
H72      H      0.887150000000     0.290750000000     0.959340000000     0.146855   
H73      H      0.135330000000     0.718700000000     0.995000000000     0.0351713  
H74      H      0.216010000000     0.636100000000     0.989260000000     0.0407878  
H75      H      0.364170000000     0.779110000000     0.004480000000     0.0661866  
H76      H      0.291380000000     0.882540000000     0.060890000000     0.149265   
H77      H      0.276740000000     0.135550000000     0.997350000000     0.0336588  
H78      H      0.359390000000     0.216470000000     0.999190000000     0.0406987  
H79      H      0.215460000000     0.364410000000     0.002500000000     0.0591922  
H80      H      0.107150000000     0.291890000000     0.048130000000     0.142292   
H81      H      0.635640000000     0.001140000000     0.778180000000     0.0343528  
H82      H      0.716450000000     0.996430000000     0.860660000000     0.038167   
H83      H      0.864420000000     0.006420000000     0.717040000000     0.0687635  
H84      H      0.792010000000     0.061030000000     0.612500000000     0.164742   
H85      H      0.279860000000     0.004210000000     0.863800000000     0.038365   
H86      H      0.362390000000     0.998620000000     0.782520000000     0.0372064  
H87      H      0.218040000000     0.004210000000     0.635030000000     0.0597176  
H88      H      0.114000000000     0.060300000000     0.706720000000     0.14934    
H89      H      0.276380000000     0.999630000000     0.136190000000     0.0325136  
H90      H      0.358960000000     0.004280000000     0.217010000000     0.03657    
H91      H      0.215460000000     0.995800000000     0.365140000000     0.0668438  
H92      H      0.110420000000     0.941640000000     0.293250000000     0.150266   
H93      H      0.859050000000     0.002350000000     0.279640000000     0.0359425  
H94      H      0.777900000000     0.998660000000     0.362000000000     0.0431535  
H95      H      0.630580000000     0.994300000000     0.217460000000     0.0577822  
H96      H      0.703810000000     0.950810000000     0.109040000000     0.149008   
H97      H      0.011020000000     0.218460000000     0.638210000000     0.0357928  
H98      H      0.010690000000     0.136430000000     0.719480000000     0.038521   
H99      H      0.013190000000     0.281100000000     0.866800000000     0.0666324  
H100     H      0.967450000000     0.389880000000     0.796090000000     0.146544   
H101     H      0.992360000000     0.719120000000     0.860040000000     0.035276   
H102     H      0.991990000000     0.636640000000     0.779200000000     0.0373201  
H103     H      0.993560000000     0.780620000000     0.631200000000     0.0618396  
H104     H      0.041180000000     0.888710000000     0.702730000000     0.161604   
H105     H      0.008610000000     0.858700000000     0.278220000000     0.0339599  
H106     H      0.008390000000     0.777350000000     0.360210000000     0.0383127  
H107     H      0.017080000000     0.630230000000     0.215600000000     0.0622847  
H108     H      0.067050000000     0.705480000000     0.109800000000     0.150492   
H109     H      0.989090000000     0.358720000000     0.220460000000     0.0328916  
H110     H      0.989030000000     0.277770000000     0.137890000000     0.0408511  
H111     H      0.983990000000     0.129860000000     0.281790000000     0.0641259  
H112     H      0.935560000000     0.203140000000     0.389020000000     0.150142   
N1       N      0.484600000000     0.197680000000     0.296260000000    -0.189329   
N2       N      0.483280000000     0.292080000000     0.199080000000    -0.222886   
N3       N      0.508740000000     0.794650000000     0.297680000000    -0.185519   
N4       N      0.506900000000     0.697300000000     0.203520000000    -0.220014   
N5       N      0.491420000000     0.796610000000     0.701980000000    -0.183255   
N6       N      0.489480000000     0.701720000000     0.798770000000    -0.222585   
N7       N      0.508770000000     0.201310000000     0.699980000000    -0.186164   
N8       N      0.506880000000     0.295760000000     0.797210000000    -0.225297   
N9       N      0.794640000000     0.295720000000     0.494610000000    -0.18608    
N10      N      0.699510000000     0.199240000000     0.497510000000    -0.225507   
N11      N      0.796900000000     0.700770000000     0.496840000000    -0.182634   
N12      N      0.702500000000     0.797770000000     0.492650000000    -0.222554   
N13      N      0.197950000000     0.294940000000     0.501120000000    -0.187717   
N14      N      0.292700000000     0.198190000000     0.495390000000    -0.22279    
N15      N      0.201140000000     0.698130000000     0.492030000000    -0.186241   
N16      N      0.297760000000     0.792760000000     0.499340000000    -0.220003   
N17      N      0.794480000000     0.488540000000     0.297580000000    -0.186237   
N18      N      0.697190000000     0.492220000000     0.203550000000    -0.220171   
N19      N      0.197310000000     0.495470000000     0.295910000000    -0.189222   
N20      N      0.291790000000     0.490010000000     0.199060000000    -0.22251    
N21      N      0.297160000000     0.500550000000     0.796110000000    -0.188717   
N22      N      0.202560000000     0.494840000000     0.699150000000    -0.221921   
N23      N      0.700090000000     0.491530000000     0.797700000000    -0.186056   
N24      N      0.794810000000     0.497000000000     0.700950000000    -0.220233   
N25      N      0.796650000000     0.794300000000     0.996030000000    -0.182497   
N26      N      0.701960000000     0.697330000000     0.000590000000    -0.219878   
N27      N      0.697950000000     0.294040000000     0.995690000000    -0.186001   
N28      N      0.795060000000     0.200190000000     0.002850000000    -0.222337   
N29      N      0.296610000000     0.700950000000     0.996120000000    -0.185049   
N30      N      0.202290000000     0.797840000000     0.003250000000    -0.222716   
N31      N      0.294140000000     0.297040000000     0.000940000000    -0.187657   
N32      N      0.197080000000     0.202310000000     0.999090000000    -0.225587   
N33      N      0.796980000000     0.000530000000     0.795480000000    -0.181423   
N34      N      0.702470000000     0.006320000000     0.698690000000    -0.223003   
N35      N      0.296830000000     0.000210000000     0.702220000000    -0.183011   
N36      N      0.200340000000     0.007210000000     0.797020000000    -0.22248    
N37      N      0.293900000000     0.000510000000     0.297640000000    -0.184606   
N38      N      0.196940000000     0.994790000000     0.203070000000    -0.225395   
N39      N      0.697640000000     0.996080000000     0.296380000000    -0.187857   
N40      N      0.792590000000     0.000060000000     0.199760000000    -0.222227   
N41      N      0.010810000000     0.202210000000     0.799720000000    -0.185347   
N42      N      0.010690000000     0.298490000000     0.704580000000    -0.222939   
N43      N      0.993180000000     0.701960000000     0.698610000000    -0.183284   
N44      N      0.993910000000     0.798880000000     0.793340000000    -0.219914   
N45      N      0.011330000000     0.697120000000     0.294450000000    -0.185209   
N46      N      0.011890000000     0.792450000000     0.198180000000    -0.222243   
N47      N      0.987250000000     0.197140000000     0.203110000000    -0.186648   
N48      N      0.987110000000     0.292100000000     0.300250000000    -0.22475    
O1       O      0.991020000000     0.170390000000     0.093410000000    -0.616738   
O2       O      0.004710000000     0.822840000000     0.089420000000    -0.557644   
O3       O      0.902750000000     0.000830000000     0.173130000000    -0.604307   
O4       O      0.087760000000     0.993580000000     0.173280000000    -0.611515   
O5       O      0.170010000000     0.995030000000     0.093070000000    -0.6249     
O6       O      0.822860000000     0.999710000000     0.090780000000    -0.562799   
O7       O      0.006080000000     0.902540000000     0.172060000000    -0.603109   
O8       O      0.990310000000     0.087950000000     0.173790000000    -0.611776   
O9       O      0.061260000000     0.934650000000     0.062300000000    -1.46319    
O10      O      0.933090000000     0.060520000000     0.063320000000    -1.46039    
O11      O      0.924170000000     0.923000000000     0.063520000000    -1.06244    
O12      O      0.062430000000     0.063610000000     0.066770000000    -1.63896    
O13      O      0.996070000000     0.825270000000     0.903410000000    -0.56225    
O14      O      0.006100000000     0.173380000000     0.908840000000    -0.598545   
O15      O      0.823650000000     0.903990000000     0.995600000000    -0.560212   
O16      O      0.172710000000     0.907080000000     0.005980000000    -0.602597   
O17      O      0.170230000000     0.092210000000     0.997860000000    -0.626748   
O18      O      0.823060000000     0.090510000000     0.001820000000    -0.563371   
O19      O      0.905930000000     0.999590000000     0.824480000000    -0.557319   
O20      O      0.091330000000     0.003820000000     0.826200000000    -0.559774   
O21      O      0.823780000000     0.996580000000     0.905050000000    -0.561903   
O22      O      0.172700000000     0.007080000000     0.907080000000    -0.60203    
O23      O      0.905780000000     0.823250000000     0.995540000000    -0.555169   
O24      O      0.904230000000     0.171500000000     0.006390000000    -0.604232   
O25      O      0.087960000000     0.172270000000     0.998910000000    -0.615876   
O26      O      0.092540000000     0.825080000000     0.000240000000    -0.565892   
O27      O      0.995790000000     0.907940000000     0.823710000000    -0.551735   
O28      O      0.004320000000     0.093000000000     0.826550000000    -0.568535   
O29      O      0.061370000000     0.063060000000     0.937180000000    -1.47228    
O30      O      0.934910000000     0.935080000000     0.934460000000    -1.3682     
O31      O      0.924280000000     0.064530000000     0.926060000000    -1.06306    
O32      O      0.064590000000     0.926100000000     0.925150000000    -1.05324    
O33      O      0.991320000000     0.322400000000     0.409480000000    -0.608694   
O34      O      0.004190000000     0.670110000000     0.403660000000    -0.567353   
O35      O      0.904160000000     0.489440000000     0.324300000000    -0.609495   
O36      O      0.088410000000     0.496830000000     0.324710000000    -0.626879   
O37      O      0.170380000000     0.498820000000     0.405500000000    -0.626751   
O38      O      0.823590000000     0.492280000000     0.406360000000    -0.570526   
O39      O      0.006550000000     0.587860000000     0.323190000000    -0.601197   
O40      O      0.990910000000     0.402230000000     0.326840000000    -0.619388   
O41      O      0.061370000000     0.559370000000     0.433780000000    -1.4657     
O42      O      0.933800000000     0.432920000000     0.436260000000    -1.46566    
O43      O      0.924310000000     0.570340000000     0.432020000000    -1.06184    
O44      O      0.062740000000     0.429990000000     0.433210000000    -1.64231    
O45      O      0.995420000000     0.672610000000     0.589580000000    -0.558896   
O46      O      0.006090000000     0.324490000000     0.594410000000    -0.605551   
O47      O      0.823860000000     0.591100000000     0.499600000000    -0.557975   
O48      O      0.172370000000     0.589040000000     0.490600000000    -0.611139   
O49      O      0.170720000000     0.404510000000     0.501780000000    -0.624034   
O50      O      0.822900000000     0.405060000000     0.496810000000    -0.567404   
O51      O      0.904850000000     0.499570000000     0.673510000000    -0.558736   
O52      O      0.092550000000     0.496740000000     0.672080000000    -0.559969   
O53      O      0.824110000000     0.499900000000     0.591840000000    -0.556712   
O54      O      0.172640000000     0.491050000000     0.590040000000    -0.603006   
O55      O      0.905810000000     0.671920000000     0.497480000000    -0.561884   
O56      O      0.903990000000     0.323460000000     0.494960000000    -0.606285   
O57      O      0.088890000000     0.323560000000     0.503280000000    -0.619844   
O58      O      0.091630000000     0.670960000000     0.493470000000    -0.566076   
O59      O      0.995180000000     0.592320000000     0.672120000000    -0.566036   
O60      O      0.004530000000     0.407150000000     0.674040000000    -0.564316   
O61      O      0.061470000000     0.434250000000     0.562730000000    -1.46679    
O62      O      0.934810000000     0.561780000000     0.561680000000    -1.36493    
O63      O      0.924420000000     0.432680000000     0.573520000000    -1.06752    
O64      O      0.064190000000     0.571500000000     0.570960000000    -1.05046    
O65      O      0.670370000000     0.995570000000     0.405830000000    -0.617919   
O66      O      0.323160000000     0.999420000000     0.406670000000    -0.562894   
O67      O      0.505120000000     0.904370000000     0.324450000000    -0.606336   
O68      O      0.489570000000     0.088800000000     0.325140000000    -0.624163   
O69      O      0.489860000000     0.170970000000     0.405830000000    -0.627612   
O70      O      0.504230000000     0.823660000000     0.406490000000    -0.564695   
O71      O      0.403580000000     0.002140000000     0.324470000000    -0.606603   
O72      O      0.588490000000     0.994790000000     0.324970000000    -0.623298   
O73      O      0.433370000000     0.060870000000     0.435310000000    -1.46169    
O74      O      0.561310000000     0.934590000000     0.434720000000    -1.46863    
O75      O      0.424450000000     0.923180000000     0.433770000000    -1.06203    
O76      O      0.562200000000     0.064200000000     0.431730000000    -1.64056    
O77      O      0.324650000000     0.996140000000     0.593030000000    -0.562175   
O78      O      0.672530000000     0.006520000000     0.589510000000    -0.593479   
O79      O      0.406790000000     0.822700000000     0.500430000000    -0.554353   
O80      O      0.402800000000     0.171650000000     0.493280000000    -0.608531   
O81      O      0.589370000000     0.171970000000     0.499610000000    -0.622695   
O82      O      0.592690000000     0.824690000000     0.496100000000    -0.570292   
O83      O      0.495410000000     0.905730000000     0.673360000000    -0.562306   
O84      O      0.504020000000     0.092270000000     0.671730000000    -0.569205   
O85      O      0.495330000000     0.823750000000     0.592450000000    -0.562467   
O86      O      0.505370000000     0.173680000000     0.590350000000    -0.608858   
O87      O      0.324530000000     0.902830000000     0.501640000000    -0.560252   
O88      O      0.672490000000     0.906940000000     0.490900000000    -0.59597    
O89      O      0.670050000000     0.090290000000     0.500050000000    -0.618022   
O90      O      0.323030000000     0.089130000000     0.496060000000    -0.558568   
O91      O      0.406250000000     0.998030000000     0.674250000000    -0.561203   
O92      O      0.592650000000     0.002570000000     0.671800000000    -0.569559   
O93      O      0.561210000000     0.062630000000     0.561300000000    -1.46639    
O94      O      0.435470000000     0.934290000000     0.563020000000    -1.3684     
O95      O      0.564650000000     0.925170000000     0.572330000000    -1.06002    
O96      O      0.424430000000     0.063560000000     0.572400000000    -1.05703    
O97      O      0.403770000000     0.324010000000     0.000300000000    -0.61793    
O98      O      0.405430000000     0.671660000000     0.998030000000    -0.564788   
O99      O      0.321620000000     0.490590000000     0.089850000000    -0.597773   
O100     O      0.324120000000     0.501950000000     0.905740000000    -0.623597   
O101     O      0.406190000000     0.501410000000     0.825030000000    -0.626309   
O102     O      0.401620000000     0.492840000000     0.172120000000    -0.566845   
O103     O      0.323290000000     0.591280000000     0.992180000000    -0.604082   
O104     O      0.323130000000     0.406150000000     0.001070000000    -0.619273   
O105     O      0.434370000000     0.561430000000     0.935330000000    -1.46304    
O106     O      0.432070000000     0.433220000000     0.061350000000    -1.47042    
O107     O      0.431060000000     0.570450000000     0.072890000000    -1.05526    
O108     O      0.431080000000     0.431920000000     0.931970000000    -1.64191    
O109     O      0.591880000000     0.670470000000     0.001560000000    -0.55992    
O110     O      0.588370000000     0.321530000000     0.993340000000    -0.601758   
O111     O      0.500410000000     0.588110000000     0.174090000000    -0.550262   
O112     O      0.490960000000     0.591560000000     0.825420000000    -0.606782   
O113     O      0.503190000000     0.405680000000     0.825020000000    -0.621123   
O114     O      0.489270000000     0.401870000000     0.172140000000    -0.569464   
O115     O      0.670080000000     0.495890000000     0.093770000000    -0.559434   
O116     O      0.671860000000     0.492910000000     0.907180000000    -0.56735    
O117     O      0.587950000000     0.494900000000     0.174090000000    -0.553387   
O118     O      0.590890000000     0.491400000000     0.825440000000    -0.610956   
O119     O      0.502590000000     0.670250000000     0.093790000000    -0.56385    
O120     O      0.486330000000     0.321880000000     0.089890000000    -0.599812   
O121     O      0.502150000000     0.324650000000     0.906350000000    -0.620369   
O122     O      0.493540000000     0.671520000000     0.907780000000    -0.559866   
O123     O      0.671930000000     0.588160000000     0.002560000000    -0.55627    
O124     O      0.669670000000     0.402840000000     0.996410000000    -0.57677    
O125     O      0.560330000000     0.433340000000     0.935340000000    -1.46816    
O126     O      0.560330000000     0.559050000000     0.063740000000    -1.37209    
O127     O      0.569070000000     0.429940000000     0.072750000000    -1.06717    
O128     O      0.571380000000     0.570440000000     0.934350000000    -1.06399    
O129     O      0.479230000000     0.205990000000     0.120790000000    -0.28116    
O130     O      0.511140000000     0.619090000000     0.289610000000    -0.279085   
O131     O      0.489790000000     0.787580000000     0.877470000000    -0.280919   
O132     O      0.507760000000     0.209370000000     0.875410000000    -0.279777   
O133     O      0.784940000000     0.120490000000     0.488880000000    -0.27938    
O134     O      0.788490000000     0.876200000000     0.490120000000    -0.278959   
O135     O      0.207020000000     0.119430000000     0.499020000000    -0.278826   
O136     O      0.376260000000     0.706810000000     0.501910000000    -0.279766   
O137     O      0.619050000000     0.486010000000     0.289600000000    -0.284177   
O138     O      0.205960000000     0.482380000000     0.120860000000    -0.28247    
O139     O      0.288530000000     0.495060000000     0.620650000000    -0.282457   
O140     O      0.709030000000     0.491510000000     0.622330000000    -0.282394   
O141     O      0.787840000000     0.618750000000     0.998340000000    -0.280696   
O142     O      0.873040000000     0.286740000000     0.005000000000    -0.279642   
O143     O      0.288230000000     0.875640000000     0.013550000000    -0.282236   
O144     O      0.118630000000     0.288300000000     0.001720000000    -0.278376   
O145     O      0.788280000000     0.013910000000     0.620480000000    -0.280101   
O146     O      0.122000000000     0.013230000000     0.711080000000    -0.282815   
O147     O      0.118800000000     0.988680000000     0.289110000000    -0.282293   
O148     O      0.706920000000     0.997160000000     0.120940000000    -0.284171   
O149     O      0.013400000000     0.377600000000     0.790050000000    -0.279851   
O150     O      0.994810000000     0.877510000000     0.707470000000    -0.280214   
O151     O      0.020090000000     0.707340000000     0.119210000000    -0.280345   
O152     O      0.982250000000     0.206300000000     0.378700000000    -0.282442   


