data_structure

_audit_creation_method RASPA-1.0
_audit_creation_date 2023-5-19
_audit_author_name 'Poobodin Mano'

_cell_length_a    32.8575
_cell_length_b    32.8588
_cell_length_c    32.8583
_cell_angle_alpha 90
_cell_angle_beta  90
_cell_angle_gamma 90
_cell_volume      35475.7

_symmetry_cell_setting          triclinic
_symmetry_space_group_name_Hall 'P 1'
_symmetry_space_group_name_H-M  'P 1'
_symmetry_Int_Tables_number     1

_symmetry_equiv_pos_as_xyz 'x,y,z'

loop_
_atom_site_label
_atom_site_type_symbol
_atom_site_fract_x
_atom_site_fract_y
_atom_site_fract_z
_atom_site_charge
C1       C      0.020300000000     0.121880000000     0.122080000000     0.505053   
C2       C      0.030090000000     0.927110000000     0.122600000000     0.508622   
C3       C      0.926470000000     0.029810000000     0.122890000000     0.508674   
C4       C      0.121270000000     0.021700000000     0.121920000000     0.50588    
C5       C      0.021310000000     0.927030000000     0.926890000000     0.497937   
C6       C      0.030290000000     0.122780000000     0.927320000000     0.508952   
C7       C      0.926020000000     0.927090000000     0.022190000000     0.497979   
C8       C      0.121750000000     0.927030000000     0.030810000000     0.5091     
C9       C      0.121420000000     0.121830000000     0.020940000000     0.505479   
C10      C      0.926690000000     0.122910000000     0.031150000000     0.508914   
C11      C      0.926160000000     0.023520000000     0.926980000000     0.498634   
C12      C      0.121990000000     0.029710000000     0.927120000000     0.509265   
C13      C      0.019610000000     0.426860000000     0.427080000000     0.506004   
C14      C      0.030090000000     0.621540000000     0.426090000000     0.509267   
C15      C      0.926090000000     0.518070000000     0.426630000000     0.510893   
C16      C      0.120840000000     0.527740000000     0.426570000000     0.508048   
C17      C      0.022000000000     0.622070000000     0.621920000000     0.498268   
C18      C      0.030360000000     0.426270000000     0.621770000000     0.509691   
C19      C      0.926470000000     0.622250000000     0.525900000000     0.500239   
C20      C      0.122260000000     0.621500000000     0.518670000000     0.511351   
C21      C      0.121050000000     0.426740000000     0.526750000000     0.508356   
C22      C      0.926170000000     0.426370000000     0.519690000000     0.510537   
C23      C      0.926580000000     0.527030000000     0.622390000000     0.500003   
C24      C      0.122320000000     0.517880000000     0.621400000000     0.511664   
C25      C      0.621200000000     0.021900000000     0.427040000000     0.505967   
C26      C      0.426400000000     0.029790000000     0.426150000000     0.509097   
C27      C      0.529170000000     0.927160000000     0.426170000000     0.511085   
C28      C      0.520470000000     0.121990000000     0.427020000000     0.507199   
C29      C      0.426180000000     0.022630000000     0.622000000000     0.499049   
C30      C      0.621980000000     0.030180000000     0.621760000000     0.509279   
C31      C      0.426400000000     0.926630000000     0.525880000000     0.500306   
C32      C      0.426130000000     0.122460000000     0.518990000000     0.510899   
C33      C      0.620980000000     0.122110000000     0.527340000000     0.507914   
C34      C      0.622220000000     0.927390000000     0.518820000000     0.510449   
C35      C      0.522070000000     0.926800000000     0.621960000000     0.500125   
C36      C      0.528780000000     0.122600000000     0.621870000000     0.511976   
C37      C      0.426470000000     0.426760000000     0.020650000000     0.505934   
C38      C      0.621200000000     0.426410000000     0.031410000000     0.509541   
C39      C      0.519240000000     0.426120000000     0.927210000000     0.511213   
C40      C      0.526310000000     0.426960000000     0.122080000000     0.507517   
C41      C      0.621170000000     0.622110000000     0.022500000000     0.498497   
C42      C      0.425310000000     0.621470000000     0.030550000000     0.509671   
C43      C      0.621700000000     0.526840000000     0.927350000000     0.499563   
C44      C      0.620620000000     0.518110000000     0.123110000000     0.511925   
C45      C      0.425850000000     0.527900000000     0.121620000000     0.50776    
C46      C      0.425900000000     0.517780000000     0.926930000000     0.510754   
C47      C      0.525530000000     0.621920000000     0.926880000000     0.500039   
C48      C      0.518310000000     0.621850000000     0.122670000000     0.511948   
C49      C      0.527000000000     0.356910000000     0.141150000000     0.0853465  
C50      C      0.526460000000     0.326460000000     0.170820000000    -0.104805   
C51      C      0.525810000000     0.336910000000     0.212130000000     0.0546013  
C52      C      0.526110000000     0.378220000000     0.222590000000    -0.104685   
C53      C      0.526610000000     0.407900000000     0.192150000000     0.0855612  
C54      C      0.524540000000     0.304900000000     0.244110000000    -0.00998787 
C55      C      0.500020000000     0.270180000000     0.239200000000    -0.0358101  
C56      C      0.498680000000     0.240160000000     0.269310000000    -0.0358018  
C57      C      0.521840000000     0.244140000000     0.305070000000    -0.00991705 
C58      C      0.546370000000     0.278870000000     0.309990000000    -0.0357569  
C59      C      0.547700000000     0.308890000000     0.279880000000    -0.0356105  
C60      C      0.520620000000     0.212110000000     0.337040000000     0.0545216  
C61      C      0.520310000000     0.170800000000     0.326550000000    -0.104616   
C62      C      0.519900000000     0.141100000000     0.356970000000     0.085343   
C63      C      0.519620000000     0.192060000000     0.408010000000     0.0854917  
C64      C      0.520060000000     0.222520000000     0.378360000000    -0.104667   
C65      C      0.529670000000     0.857110000000     0.407350000000     0.088437   
C66      C      0.528730000000     0.826630000000     0.377800000000    -0.104171   
C67      C      0.528610000000     0.836990000000     0.336480000000     0.0561348  
C68      C      0.530240000000     0.878230000000     0.325860000000    -0.104349   
C69      C      0.531120000000     0.907970000000     0.356200000000     0.089725   
C70      C      0.526200000000     0.804970000000     0.304680000000    -0.00960802 
C71      C      0.500160000000     0.771370000000     0.309640000000    -0.03536    
C72      C      0.497670000000     0.741330000000     0.279660000000    -0.0352621  
C73      C      0.521140000000     0.744210000000     0.244020000000    -0.00978938 
C74      C      0.547170000000     0.777810000000     0.239050000000    -0.0351657  
C75      C      0.549660000000     0.807850000000     0.269030000000    -0.035272   
C76      C      0.518780000000     0.712150000000     0.212250000000     0.0561077  
C77      C      0.517100000000     0.670930000000     0.222920000000    -0.104838   
C78      C      0.516260000000     0.641140000000     0.192610000000     0.0894991  
C79      C      0.517850000000     0.691930000000     0.141400000000     0.0882772  
C80      C      0.518740000000     0.722450000000     0.170910000000    -0.104322   
C81      C      0.521650000000     0.856730000000     0.640980000000     0.0873866  
C82      C      0.521930000000     0.826280000000     0.670640000000    -0.103246   
C83      C      0.522160000000     0.836730000000     0.711960000000     0.0554674  
C84      C      0.521740000000     0.878040000000     0.722430000000    -0.102923   
C85      C      0.521410000000     0.907710000000     0.692000000000     0.0875775  
C86      C      0.523030000000     0.804740000000     0.743950000000    -0.00914026 
C87      C      0.499580000000     0.769190000000     0.739850000000    -0.0351638  
C88      C      0.500490000000     0.739080000000     0.769890000000    -0.0351779  
C89      C      0.524890000000     0.743810000000     0.804730000000    -0.00919741 
C90      C      0.548350000000     0.779350000000     0.808810000000    -0.0350246  
C91      C      0.547440000000     0.809450000000     0.778780000000    -0.0350648  
C92      C      0.525700000000     0.711860000000     0.836750000000     0.0554345  
C93      C      0.526120000000     0.670540000000     0.826340000000    -0.103252   
C94      C      0.526360000000     0.640900000000     0.856810000000     0.0873516  
C95      C      0.526010000000     0.691950000000     0.907760000000     0.0874656  
C96      C      0.525820000000     0.722360000000     0.878050000000    -0.102909   
C97      C      0.530840000000     0.192530000000     0.641150000000     0.0895408  
C98      C      0.530150000000     0.222840000000     0.670940000000    -0.104741   
C99      C      0.528600000000     0.212170000000     0.712160000000     0.0561789  
C100     C      0.528580000000     0.170840000000     0.722470000000    -0.104343   
C101     C      0.529340000000     0.141330000000     0.691950000000     0.0883262  
C102     C      0.526470000000     0.243950000000     0.744230000000    -0.0097515  
C103     C      0.550090000000     0.279480000000     0.741280000000    -0.0351556  
C104     C      0.547830000000     0.309460000000     0.771330000000    -0.0352729  
C105     C      0.521870000000     0.304610000000     0.805010000000    -0.00954742 
C106     C      0.498260000000     0.269070000000     0.807960000000    -0.0352706  
C107     C      0.500520000000     0.239090000000     0.777910000000    -0.0350911  
C108     C      0.519690000000     0.336420000000     0.837040000000     0.0562426  
C109     C      0.519730000000     0.377740000000     0.826670000000    -0.104268   
C110     C      0.518890000000     0.407290000000     0.857160000000     0.0885588  
C111     C      0.517280000000     0.356150000000     0.908010000000     0.0898362  
C112     C      0.518050000000     0.325810000000     0.878280000000    -0.104405   
C113     C      0.856060000000     0.407640000000     0.518680000000     0.0881305  
C114     C      0.825510000000     0.378100000000     0.518950000000    -0.103827   
C115     C      0.835790000000     0.336750000000     0.518750000000     0.0558949  
C116     C      0.877050000000     0.326120000000     0.517600000000    -0.104132   
C117     C      0.906850000000     0.356430000000     0.517350000000     0.0895119  
C118     C      0.803680000000     0.304910000000     0.520290000000    -0.00947591 
C119     C      0.769490000000     0.309740000000     0.545580000000    -0.0353679  
C120     C      0.739450000000     0.279700000000     0.547350000000    -0.0352445  
C121     C      0.742900000000     0.244090000000     0.523900000000    -0.00986147 
C122     C      0.777070000000     0.239260000000     0.498590000000    -0.0354143  
C123     C      0.807100000000     0.269320000000     0.496800000000    -0.0354086  
C124     C      0.710940000000     0.212140000000     0.525720000000     0.0549734  
C125     C      0.669640000000     0.222610000000     0.526690000000    -0.104864   
C126     C      0.639990000000     0.192170000000     0.527630000000     0.0857941  
C127     C      0.691010000000     0.141180000000     0.527280000000     0.085688   
C128     C      0.721420000000     0.170850000000     0.526250000000    -0.104745   
C129     C      0.907680000000     0.692360000000     0.525320000000     0.0876476  
C130     C      0.878150000000     0.722890000000     0.524240000000    -0.10313    
C131     C      0.836800000000     0.712580000000     0.523820000000     0.0554617  
C132     C      0.826170000000     0.671330000000     0.524920000000    -0.103344   
C133     C      0.856480000000     0.641560000000     0.526010000000     0.0872692  
C134     C      0.804970000000     0.744670000000     0.522010000000    -0.00926719 
C135     C      0.809030000000     0.780680000000     0.544760000000    -0.0351575  
C136     C      0.779130000000     0.810860000000     0.543010000000    -0.035077   
C137     C      0.744440000000     0.805740000000     0.518480000000    -0.00947309 
C138     C      0.740390000000     0.769770000000     0.495690000000    -0.0351415  
C139     C      0.770310000000     0.739590000000     0.497420000000    -0.0352283  
C140     C      0.712400000000     0.837620000000     0.517120000000     0.0560549  
C141     C      0.722760000000     0.878940000000     0.516030000000    -0.104293   
C142     C      0.692260000000     0.908530000000     0.515990000000     0.0895653  
C143     C      0.641390000000     0.857410000000     0.517510000000     0.0882535  
C144     C      0.671120000000     0.827050000000     0.517500000000    -0.103814   
C145     C      0.140000000000     0.356670000000     0.526920000000     0.0855827  
C146     C      0.169630000000     0.326210000000     0.525890000000    -0.104902   
C147     C      0.210930000000     0.336660000000     0.524850000000     0.0549117  
C148     C      0.221450000000     0.377940000000     0.525360000000    -0.105072   
C149     C      0.191060000000     0.407620000000     0.526460000000     0.0858924  
C150     C      0.242860000000     0.304690000000     0.522970000000    -0.0100093  
C151     C      0.239420000000     0.269080000000     0.546420000000    -0.0354201  
C152     C      0.269450000000     0.239020000000     0.544620000000    -0.0354971  
C153     C      0.303610000000     0.243850000000     0.519300000000    -0.009719   
C154     C      0.307020000000     0.279430000000     0.495800000000    -0.0356052  
C155     C      0.276990000000     0.309500000000     0.497610000000    -0.035652   
C156     C      0.335730000000     0.212030000000     0.517770000000     0.0557453  
C157     C      0.325460000000     0.170680000000     0.517940000000    -0.104052   
C158     C      0.356020000000     0.141160000000     0.517730000000     0.0878558  
C159     C      0.406790000000     0.192380000000     0.516510000000     0.0893509  
C160     C      0.376980000000     0.222680000000     0.516690000000    -0.104514   
C161     C      0.192270000000     0.640390000000     0.515710000000     0.0895164  
C162     C      0.222750000000     0.670000000000     0.515720000000    -0.104823   
C163     C      0.212360000000     0.711310000000     0.516840000000     0.056027   
C164     C      0.171090000000     0.721860000000     0.517260000000    -0.103968   
C165     C      0.141370000000     0.691490000000     0.517310000000     0.0879542  
C166     C      0.244390000000     0.743190000000     0.518230000000    -0.00977837 
C167     C      0.279040000000     0.738090000000     0.542810000000    -0.0351597  
C168     C      0.308930000000     0.768270000000     0.544590000000    -0.0354137  
C169     C      0.304890000000     0.804260000000     0.521820000000    -0.00930255 
C170     C      0.270270000000     0.809330000000     0.497170000000    -0.0354055  
C171     C      0.240360000000     0.779160000000     0.495420000000    -0.0351024  
C172     C      0.336720000000     0.836340000000     0.523660000000     0.0553868  
C173     C      0.378060000000     0.826020000000     0.524160000000    -0.103431   
C174     C      0.407600000000     0.856540000000     0.525300000000     0.0875232  
C175     C      0.356410000000     0.907360000000     0.525860000000     0.0874172  
C176     C      0.326100000000     0.877590000000     0.524720000000    -0.103049   
C177     C      0.639330000000     0.513320000000     0.193070000000     0.089601   
C178     C      0.668860000000     0.511490000000     0.223550000000    -0.104859   
C179     C      0.710200000000     0.511420000000     0.213230000000     0.056022   
C180     C      0.720840000000     0.512710000000     0.172000000000    -0.104035   
C181     C      0.690540000000     0.514630000000     0.142270000000     0.0880075  
C182     C      0.742030000000     0.510790000000     0.245320000000    -0.00970683 
C183     C      0.737750000000     0.534720000000     0.280500000000    -0.0352602  
C184     C      0.767940000000     0.534790000000     0.310410000000    -0.035275   
C185     C      0.803130000000     0.510860000000     0.305890000000    -0.00957794 
C186     C      0.807340000000     0.486760000000     0.270780000000    -0.0352565  
C187     C      0.777140000000     0.486750000000     0.240810000000    -0.0353332  
C188     C      0.835450000000     0.511490000000     0.337530000000     0.0559561  
C189     C      0.825360000000     0.512430000000     0.378920000000    -0.104038   
C190     C      0.856010000000     0.514290000000     0.408260000000     0.0883272  
C191     C      0.906590000000     0.513660000000     0.356830000000     0.0894529  
C192     C      0.876670000000     0.511830000000     0.326690000000    -0.104239   
C193     C      0.190800000000     0.529820000000     0.407200000000     0.0857707  
C194     C      0.221100000000     0.530850000000     0.377390000000    -0.104667   
C195     C      0.210450000000     0.531260000000     0.336120000000     0.0546829  
C196     C      0.169080000000     0.530920000000     0.325880000000    -0.104599   
C197     C      0.139560000000     0.529940000000     0.356450000000     0.0855943  
C198     C      0.242300000000     0.531660000000     0.303950000000    -0.00982716 
C199     C      0.277470000000     0.555650000000     0.308330000000    -0.0354752  
C200     C      0.307560000000     0.555680000000     0.278250000000    -0.0354566  
C201     C      0.303200000000     0.531720000000     0.243060000000    -0.00982454 
C202     C      0.267980000000     0.507820000000     0.238630000000    -0.035802   
C203     C      0.237900000000     0.507790000000     0.268710000000    -0.0358321  
C204     C      0.335380000000     0.531370000000     0.211210000000     0.0546678  
C205     C      0.376650000000     0.531040000000     0.221860000000    -0.104639   
C206     C      0.406470000000     0.530050000000     0.191570000000     0.0856894  
C207     C      0.355720000000     0.530060000000     0.140320000000     0.0855332  
C208     C      0.325140000000     0.531010000000     0.169840000000    -0.10459    
C209     C      0.192250000000     0.513530000000     0.640480000000     0.0892292  
C210     C      0.222580000000     0.511810000000     0.670250000000    -0.104414   
C211     C      0.211960000000     0.511530000000     0.711530000000     0.0558847  
C212     C      0.170630000000     0.512360000000     0.721840000000    -0.104215   
C213     C      0.141110000000     0.514120000000     0.691350000000     0.0881978  
C214     C      0.243760000000     0.511070000000     0.743710000000    -0.00969727 
C215     C      0.278910000000     0.487040000000     0.739450000000    -0.035268   
C216     C      0.308880000000     0.487010000000     0.769660000000    -0.0353104  
C217     C      0.304330000000     0.510960000000     0.804830000000    -0.00961614 
C218     C      0.269160000000     0.534920000000     0.809090000000    -0.0353593  
C219     C      0.239260000000     0.535000000000     0.778900000000    -0.035258   
C220     C      0.336280000000     0.511400000000     0.836810000000     0.0559639  
C221     C      0.377580000000     0.512590000000     0.826400000000    -0.103818   
C222     C      0.407150000000     0.514370000000     0.856880000000     0.0880646  
C223     C      0.356060000000     0.513070000000     0.907800000000     0.0895955  
C224     C      0.325740000000     0.511360000000     0.878090000000    -0.104461   
C225     C      0.907840000000     0.528840000000     0.692520000000     0.0875035  
C226     C      0.878320000000     0.529640000000     0.723080000000    -0.102888   
C227     C      0.836960000000     0.529990000000     0.712810000000     0.055403   
C228     C      0.826320000000     0.529750000000     0.671540000000    -0.103173   
C229     C      0.856620000000     0.528900000000     0.641740000000     0.0873318  
C230     C      0.805110000000     0.530280000000     0.744960000000    -0.00915028 
C231     C      0.809490000000     0.506280000000     0.780120000000    -0.0351062  
C232     C      0.779430000000     0.506250000000     0.810200000000    -0.035063   
C233     C      0.744240000000     0.530210000000     0.805850000000    -0.00919615 
C234     C      0.739900000000     0.554300000000     0.770750000000    -0.0351434  
C235     C      0.769970000000     0.554330000000     0.740660000000    -0.0352085  
C236     C      0.712100000000     0.529860000000     0.837720000000     0.0554308  
C237     C      0.722380000000     0.529540000000     0.879070000000    -0.102893   
C238     C      0.691820000000     0.528700000000     0.908610000000     0.0874296  
C239     C      0.641040000000     0.528660000000     0.857390000000     0.0872982  
C240     C      0.670840000000     0.529540000000     0.827080000000    -0.103188   
C241     C      0.640200000000     0.692160000000     0.020740000000     0.0866599  
C242     C      0.669880000000     0.722600000000     0.019960000000    -0.104295   
C243     C      0.711190000000     0.712130000000     0.019800000000     0.0561548  
C244     C      0.721630000000     0.670820000000     0.020150000000    -0.104087   
C245     C      0.691200000000     0.641160000000     0.020880000000     0.0868407  
C246     C      0.743220000000     0.744100000000     0.019550000000    -0.0142719  
C247     C      0.738860000000     0.779200000000     0.995460000000    -0.0301603  
C248     C      0.768930000000     0.809300000000     0.995410000000    -0.030286   
C249     C      0.804080000000     0.805000000000     0.019440000000    -0.0140021  
C250     C      0.808440000000     0.769890000000     0.043510000000    -0.0346462  
C251     C      0.778380000000     0.739810000000     0.043560000000    -0.0345546  
C252     C      0.836030000000     0.837040000000     0.019580000000     0.0562987  
C253     C      0.825540000000     0.878350000000     0.019780000000    -0.103814   
C254     C      0.855960000000     0.908040000000     0.020500000000     0.0872088  
C255     C      0.906990000000     0.857060000000     0.020480000000     0.0872605  
C256     C      0.877350000000     0.826620000000     0.019810000000    -0.103754   
C257     C      0.691240000000     0.407940000000     0.035430000000     0.0874014  
C258     C      0.721850000000     0.378560000000     0.037290000000    -0.104109   
C259     C      0.711710000000     0.337190000000     0.038120000000     0.0546173  
C260     C      0.670480000000     0.326390000000     0.037700000000    -0.104199   
C261     C      0.640590000000     0.356580000000     0.035870000000     0.0884773  
C262     C      0.744000000000     0.305510000000     0.038660000000    -0.00849533 
C263     C      0.779190000000     0.310070000000     0.014750000000    -0.0396578  
C264     C      0.809390000000     0.280170000000     0.014760000000    -0.0398435  
C265     C      0.805110000000     0.244950000000     0.038640000000    -0.00840579 
C266     C      0.769990000000     0.240390000000     0.062650000000    -0.0358395  
C267     C      0.739780000000     0.270350000000     0.062680000000    -0.0358253  
C268     C      0.836990000000     0.212900000000     0.037990000000     0.054652   
C269     C      0.878320000000     0.223270000000     0.037890000000    -0.104361   
C270     C      0.907890000000     0.192830000000     0.036010000000     0.0889399  
C271     C      0.856750000000     0.141960000000     0.034750000000     0.0872916  
C272     C      0.826400000000     0.171650000000     0.036710000000    -0.10369    
C273     C      0.355360000000     0.640290000000     0.035050000000     0.0886565  
C274     C      0.324910000000     0.669870000000     0.036810000000    -0.104583   
C275     C      0.335290000000     0.711190000000     0.036970000000     0.0547476  
C276     C      0.376540000000     0.721770000000     0.035820000000    -0.103635   
C277     C      0.406230000000     0.691420000000     0.033980000000     0.0873337  
C278     C      0.303230000000     0.743080000000     0.037590000000    -0.00829331 
C279     C      0.268040000000     0.738840000000     0.013650000000    -0.0397501  
C280     C      0.238140000000     0.769040000000     0.013640000000    -0.0396345  
C281     C      0.242660000000     0.804190000000     0.037620000000    -0.0082882  
C282     C      0.277790000000     0.808370000000     0.061700000000    -0.0354952  
C283     C      0.307760000000     0.778160000000     0.061660000000    -0.0356468  
C284     C      0.210980000000     0.836490000000     0.037110000000     0.0547793  
C285     C      0.169600000000     0.826350000000     0.036220000000    -0.103896   
C286     C      0.140210000000     0.856970000000     0.034470000000     0.0875325  
C287     C      0.191580000000     0.907610000000     0.035130000000     0.0888883  
C288     C      0.221770000000     0.877720000000     0.036850000000    -0.103898   
C289     C      0.140650000000     0.191840000000     0.018850000000     0.0849762  
C290     C      0.170420000000     0.222190000000     0.017830000000    -0.105648   
C291     C      0.211700000000     0.211610000000     0.017400000000     0.055373   
C292     C      0.222020000000     0.170260000000     0.017680000000    -0.105526   
C293     C      0.191500000000     0.140690000000     0.018650000000     0.0851787  
C294     C      0.243830000000     0.243500000000     0.017030000000    -0.0149473  
C295     C      0.239430000000     0.278690000000     0.993070000000    -0.0306548  
C296     C      0.269530000000     0.308760000000     0.993010000000    -0.030724   
C297     C      0.304760000000     0.304380000000     0.016920000000    -0.0149104  
C298     C      0.309180000000     0.269160000000     0.040820000000    -0.035384   
C299     C      0.279090000000     0.239100000000     0.040880000000    -0.0353831  
C300     C      0.336670000000     0.336490000000     0.017190000000     0.0552547  
C301     C      0.326110000000     0.377790000000     0.017510000000    -0.105595   
C302     C      0.356470000000     0.407540000000     0.018480000000     0.0850201  
C303     C      0.407600000000     0.356680000000     0.018420000000     0.0850387  
C304     C      0.378020000000     0.326170000000     0.017500000000    -0.105469   
C305     C      0.640980000000     0.031480000000     0.691800000000     0.0873248  
C306     C      0.670640000000     0.031520000000     0.722230000000    -0.103771   
C307     C      0.711940000000     0.031960000000     0.711740000000     0.0547649  
C308     C      0.722390000000     0.033100000000     0.670450000000    -0.104561   
C309     C      0.691960000000     0.033120000000     0.640790000000     0.0886149  
C310     C      0.743920000000     0.030620000000     0.743690000000    -0.00843745 
C311     C      0.739820000000     0.053450000000     0.779640000000    -0.0355275  
C312     C      0.769740000000     0.051800000000     0.809820000000    -0.0356747  
C313     C      0.804430000000     0.027240000000     0.804780000000    -0.00803688 
C314     C      0.808510000000     0.004430000000     0.768820000000    -0.0397522  
C315     C      0.778620000000     0.006110000000     0.738620000000    -0.0395804  
C316     C      0.836310000000     0.025570000000     0.836830000000     0.0542297  
C317     C      0.825760000000     0.024600000000     0.878110000000    -0.102818   
C318     C      0.856130000000     0.023560000000     0.907830000000     0.0868679  
C319     C      0.907230000000     0.024090000000     0.856920000000     0.0869923  
C320     C      0.877630000000     0.025130000000     0.826450000000    -0.103064   
C321     C      0.191950000000     0.032200000000     0.907910000000     0.0891346  
C322     C      0.222300000000     0.032100000000     0.878150000000    -0.104044   
C323     C      0.211700000000     0.031110000000     0.836880000000     0.0548936  
C324     C      0.170360000000     0.030950000000     0.826550000000    -0.103926   
C325     C      0.140800000000     0.031080000000     0.857060000000     0.087588   
C326     C      0.243540000000     0.029650000000     0.804800000000    -0.0083033  
C327     C      0.279090000000     0.053200000000     0.808260000000    -0.0355957  
C328     C      0.309150000000     0.051510000000     0.778210000000    -0.0356448  
C329     C      0.304350000000     0.026230000000     0.744020000000    -0.00821827 
C330     C      0.268790000000     0.002710000000     0.740550000000    -0.0397164  
C331     C      0.238750000000     0.004380000000     0.770590000000    -0.0396073  
C332     C      0.336270000000     0.024500000000     0.712040000000     0.054182   
C333     C      0.377570000000     0.023990000000     0.722490000000    -0.103299   
C334     C      0.407190000000     0.022930000000     0.692050000000     0.0866121  
C335     C      0.356140000000     0.022570000000     0.641080000000     0.0865076  
C336     C      0.325750000000     0.023550000000     0.670760000000    -0.103386   
C337     C      0.191330000000     0.021900000000     0.140870000000     0.0848329  
C338     C      0.221790000000     0.022910000000     0.170480000000    -0.104885   
C339     C      0.211390000000     0.023390000000     0.211800000000     0.0533831  
C340     C      0.170100000000     0.022350000000     0.222330000000    -0.10469    
C341     C      0.140400000000     0.021330000000     0.191950000000     0.0847128  
C342     C      0.243410000000     0.025270000000     0.243700000000    -0.00891029 
C343     C      0.279480000000     0.002600000000     0.239710000000    -0.0399571  
C344     C      0.309660000000     0.004550000000     0.269600000000    -0.0400437  
C345     C      0.304480000000     0.029170000000     0.304200000000    -0.00862703 
C346     C      0.268420000000     0.051850000000     0.308210000000    -0.0362392  
C347     C      0.238250000000     0.049940000000     0.278290000000    -0.0361779  
C348     C      0.336410000000     0.030810000000     0.336180000000     0.054373   
C349     C      0.377700000000     0.032110000000     0.325720000000    -0.104632   
C350     C      0.407360000000     0.032410000000     0.356150000000     0.0883877  
C351     C      0.356360000000     0.030750000000     0.407140000000     0.0870636  
C352     C      0.325930000000     0.030510000000     0.377480000000    -0.103776   
C353     C      0.856430000000     0.030960000000     0.141920000000     0.0873124  
C354     C      0.826010000000     0.030780000000     0.171590000000    -0.103699   
C355     C      0.836500000000     0.030990000000     0.212890000000     0.0547035  
C356     C      0.877790000000     0.032120000000     0.223340000000    -0.104192   
C357     C      0.907450000000     0.032350000000     0.192900000000     0.0888973  
C358     C      0.804550000000     0.029420000000     0.244870000000    -0.00837431 
C359     C      0.768540000000     0.052160000000     0.240860000000    -0.0359019  
C360     C      0.738340000000     0.050280000000     0.270760000000    -0.0360448  
C361     C      0.743430000000     0.025590000000     0.305340000000    -0.00864661 
C362     C      0.779460000000     0.002860000000     0.309340000000    -0.0396581  
C363     C      0.809670000000     0.004760000000     0.279470000000    -0.0397285  
C364     C      0.711380000000     0.023730000000     0.337210000000     0.0536009  
C365     C      0.670110000000     0.022700000000     0.326650000000    -0.104532   
C366     C      0.640380000000     0.021650000000     0.357020000000     0.0847671  
C367     C      0.691280000000     0.022190000000     0.408130000000     0.084976   
C368     C      0.721760000000     0.023230000000     0.378540000000    -0.104684   
C369     C      0.034100000000     0.141400000000     0.857320000000     0.0876783  
C370     C      0.035900000000     0.170840000000     0.826770000000    -0.103965   
C371     C      0.036770000000     0.212190000000     0.836980000000     0.0547307  
C372     C      0.036450000000     0.222910000000     0.878240000000    -0.103943   
C373     C      0.034670000000     0.192660000000     0.908070000000     0.0886901  
C374     C      0.037310000000     0.243910000000     0.804740000000    -0.00836864 
C375     C      0.013350000000     0.239420000000     0.769570000000    -0.0397116  
C376     C      0.013440000000     0.269300000000     0.739360000000    -0.0397526  
C377     C      0.037430000000     0.304460000000     0.743600000000    -0.00848428 
C378     C      0.061440000000     0.308980000000     0.778730000000    -0.0356895  
C379     C      0.061400000000     0.279030000000     0.808950000000    -0.0356615  
C380     C      0.036920000000     0.336450000000     0.711670000000     0.0547413  
C381     C      0.036810000000     0.325990000000     0.670370000000    -0.104703   
C382     C      0.035050000000     0.356380000000     0.640730000000     0.0887431  
C383     C      0.033930000000     0.407360000000     0.691760000000     0.0872603  
C384     C      0.035780000000     0.377730000000     0.722170000000    -0.103773   
C385     C      0.019700000000     0.907960000000     0.856830000000     0.0870101  
C386     C      0.019050000000     0.878260000000     0.826410000000    -0.103862   
C387     C      0.018860000000     0.836960000000     0.836890000000     0.0561646  
C388     C      0.019040000000     0.826540000000     0.878210000000    -0.103646   
C389     C      0.019640000000     0.856980000000     0.907860000000     0.0871038  
C390     C      0.018800000000     0.804910000000     0.804930000000    -0.0140632  
C391     C      0.994860000000     0.809230000000     0.769720000000    -0.0303115  
C392     C      0.994980000000     0.779160000000     0.739620000000    -0.0302538  
C393     C      0.019050000000     0.744040000000     0.744020000000    -0.0142626  
C394     C      0.042980000000     0.739740000000     0.779240000000    -0.0345797  
C395     C      0.042850000000     0.769790000000     0.809320000000    -0.0346943  
C396     C      0.019360000000     0.712080000000     0.711980000000     0.0560146  
C397     C      0.019580000000     0.722550000000     0.670660000000    -0.104161   
C398     C      0.020360000000     0.692130000000     0.640980000000     0.0865611  
C399     C      0.020400000000     0.641110000000     0.691960000000     0.0867135  
C400     C      0.019670000000     0.670760000000     0.722400000000    -0.104034   
C401     C      0.033770000000     0.857070000000     0.141110000000     0.0876254  
C402     C      0.035570000000     0.826470000000     0.170500000000    -0.10394    
C403     C      0.036550000000     0.836630000000     0.211870000000     0.0547498  
C404     C      0.036320000000     0.877870000000     0.222640000000    -0.103895   
C405     C      0.034540000000     0.907740000000     0.192440000000     0.0887853  
C406     C      0.037100000000     0.804350000000     0.243560000000    -0.00824198 
C407     C      0.013070000000     0.769230000000     0.239090000000    -0.0397388  
C408     C      0.013140000000     0.739020000000     0.268990000000    -0.0397     
C409     C      0.037180000000     0.743220000000     0.304110000000    -0.00838726 
C410     C      0.061290000000     0.778290000000     0.308590000000    -0.035596   
C411     C      0.061270000000     0.808510000000     0.278630000000    -0.0356637  
C412     C      0.036620000000     0.711320000000     0.336140000000     0.0547355  
C413     C      0.036380000000     0.670000000000     0.325730000000    -0.104567   
C414     C      0.034600000000     0.640400000000     0.356160000000     0.0886873  
C415     C      0.033730000000     0.691500000000     0.407080000000     0.0872395  
C416     C      0.035580000000     0.721870000000     0.377410000000    -0.103718   
C417     C      0.017280000000     0.356790000000     0.408190000000     0.0850157  
C418     C      0.016360000000     0.326290000000     0.378600000000    -0.105408   
C419     C      0.016130000000     0.336620000000     0.337250000000     0.0552495  
C420     C      0.016480000000     0.377920000000     0.326700000000    -0.105652   
C421     C      0.017430000000     0.407670000000     0.357060000000     0.0849568  
C422     C      0.015930000000     0.304510000000     0.305340000000    -0.0149203  
C423     C      0.039840000000     0.269300000000     0.309810000000    -0.0353625  
C424     C      0.039960000000     0.239230000000     0.279740000000    -0.0353622  
C425     C      0.016180000000     0.243620000000     0.244430000000    -0.0148452  
C426     C      0.992210000000     0.278790000000     0.239970000000    -0.030735   
C427     C      0.992090000000     0.308880000000     0.270070000000    -0.0306783  
C428     C      0.016620000000     0.211710000000     0.212320000000     0.0552868  
C429     C      0.016910000000     0.170360000000     0.222650000000    -0.105357   
C430     C      0.017940000000     0.140770000000     0.192150000000     0.0850773  
C431     C      0.018190000000     0.191900000000     0.141280000000     0.0850056  
C432     C      0.017100000000     0.222260000000     0.171030000000    -0.10549    
Eu1      Eu     0.023410000000     0.024060000000     0.096810000000     3.45796    
Eu2      Eu     0.023870000000     0.952210000000     0.024740000000     3.02548    
Eu3      Eu     0.023540000000     0.096820000000     0.024220000000     3.45507    
Eu4      Eu     0.951370000000     0.024900000000     0.024860000000     3.031      
Eu5      Eu     0.096090000000     0.024030000000     0.024110000000     3.47178    
Eu6      Eu     0.024010000000     0.024850000000     0.952180000000     3.03545    
Eu7      Eu     0.023100000000     0.524710000000     0.452150000000     3.4696     
Eu8      Eu     0.024210000000     0.596740000000     0.524080000000     3.0267     
Eu9      Eu     0.023250000000     0.452130000000     0.524880000000     3.47703    
Eu10     Eu     0.951410000000     0.524330000000     0.524450000000     3.06702    
Eu11     Eu     0.096100000000     0.524610000000     0.524540000000     3.52278    
Eu12     Eu     0.024310000000     0.524200000000     0.596810000000     3.04204    
Eu13     Eu     0.523340000000     0.024110000000     0.452160000000     3.47155    
Eu14     Eu     0.451380000000     0.024530000000     0.524140000000     3.02818    
Eu15     Eu     0.595970000000     0.024260000000     0.524830000000     3.47016    
Eu16     Eu     0.524150000000     0.952090000000     0.524130000000     3.06587    
Eu17     Eu     0.523170000000     0.096770000000     0.524860000000     3.51777    
Eu18     Eu     0.523990000000     0.024660000000     0.596800000000     3.03748    
Eu19     Eu     0.524270000000     0.452110000000     0.024200000000     3.4743     
Eu20     Eu     0.596070000000     0.524250000000     0.025070000000     3.03363    
Eu21     Eu     0.451470000000     0.524640000000     0.023910000000     3.47063    
Eu22     Eu     0.523770000000     0.524080000000     0.952170000000     3.06691    
Eu23     Eu     0.523810000000     0.524820000000     0.096860000000     3.52302    
Eu24     Eu     0.523350000000     0.596770000000     0.024750000000     3.0388     
H1       H      0.986340000000     0.986940000000     0.092070000000    -0.171115   
H2       H      0.083070000000     0.083760000000     0.083740000000     0.410197   
H3       H      0.986340000000     0.092260000000     0.987110000000    -0.16802    
H4       H      0.091230000000     0.986870000000     0.987090000000    -0.17292    
H5       H      0.986060000000     0.561960000000     0.456890000000    -0.170437   
H6       H      0.082600000000     0.465040000000     0.464870000000     0.411874   
H7       H      0.986390000000     0.456990000000     0.562200000000    -0.174126   
H8       H      0.091550000000     0.561660000000     0.561710000000    -0.183797   
H9       H      0.486350000000     0.986980000000     0.456900000000    -0.174383   
H10      H      0.582770000000     0.083870000000     0.465240000000     0.412677   
H11      H      0.591320000000     0.987130000000     0.561880000000    -0.173329   
H12      H      0.486100000000     0.091840000000     0.561900000000    -0.183698   
H13      H      0.561590000000     0.456900000000     0.987360000000    -0.174517   
H14      H      0.464250000000     0.465120000000     0.083550000000     0.411791   
H15      H      0.456190000000     0.561760000000     0.986760000000    -0.171508   
H16      H      0.560970000000     0.561820000000     0.092180000000    -0.184582   
H17      H      0.527460000000     0.347240000000     0.109610000000     0.0175088  
H18      H      0.526900000000     0.294900000000     0.161340000000     0.0523625  
H19      H      0.525220000000     0.387710000000     0.254140000000     0.0527053  
H20      H      0.526520000000     0.439440000000     0.201820000000     0.0177035  
H21      H      0.481290000000     0.266470000000     0.212330000000     0.0349848  
H22      H      0.479010000000     0.214100000000     0.264830000000     0.0358373  
H23      H      0.565100000000     0.282580000000     0.336860000000     0.0355567  
H24      H      0.567370000000     0.334950000000     0.284360000000     0.0362814  
H25      H      0.521140000000     0.161330000000     0.294990000000     0.0523072  
H26      H      0.520000000000     0.109570000000     0.347280000000     0.0175284  
H27      H      0.519240000000     0.201700000000     0.439550000000     0.0178154  
H28      H      0.519630000000     0.254080000000     0.387860000000     0.0527311  
H29      H      0.529480000000     0.847530000000     0.438910000000     0.0195964  
H30      H      0.528240000000     0.795080000000     0.387350000000     0.0535161  
H31      H      0.529910000000     0.887620000000     0.294260000000     0.0539957  
H32      H      0.531850000000     0.939480000000     0.346470000000     0.0201603  
H33      H      0.481180000000     0.768590000000     0.336440000000     0.0365411  
H34      H      0.476890000000     0.716140000000     0.284140000000     0.0362455  
H35      H      0.566160000000     0.780590000000     0.212250000000     0.0367157  
H36      H      0.570440000000     0.833050000000     0.264550000000     0.0368736  
H37      H      0.517360000000     0.661570000000     0.254520000000     0.0533792  
H38      H      0.515490000000     0.609640000000     0.202390000000     0.0188734  
H39      H      0.518100000000     0.701470000000     0.109820000000     0.0194316  
H40      H      0.519260000000     0.753980000000     0.161310000000     0.0535795  
H41      H      0.521760000000     0.847080000000     0.609440000000     0.0197439  
H42      H      0.522680000000     0.794730000000     0.661150000000     0.053403   
H43      H      0.521270000000     0.887500000000     0.754000000000     0.0543685  
H44      H      0.521100000000     0.939250000000     0.701680000000     0.021048   
H45      H      0.479980000000     0.764870000000     0.713700000000     0.0364943  
H46      H      0.481550000000     0.712370000000     0.766100000000     0.0366575  
H47      H      0.567940000000     0.783670000000     0.834970000000     0.0369438  
H48      H      0.566380000000     0.836160000000     0.782570000000     0.0371717  
H49      H      0.526660000000     0.661030000000     0.794780000000     0.0533513  
H50      H      0.526690000000     0.609350000000     0.847170000000     0.0197255  
H51      H      0.525830000000     0.701650000000     0.939290000000     0.0209379  
H52      H      0.525070000000     0.753930000000     0.887500000000     0.0542324  
H53      H      0.531540000000     0.202300000000     0.609650000000     0.0190463  
H54      H      0.529910000000     0.254450000000     0.661580000000     0.0535182  
H55      H      0.528130000000     0.161240000000     0.754010000000     0.053554   
H56      H      0.529060000000     0.109750000000     0.701490000000     0.0194283  
H57      H      0.570810000000     0.283870000000     0.716020000000     0.0363782  
H58      H      0.566930000000     0.336170000000     0.768500000000     0.0366464  
H59      H      0.477530000000     0.264680000000     0.833210000000     0.0367605  
H60      H      0.481420000000     0.212370000000     0.780730000000     0.0364906  
H61      H      0.520220000000     0.387300000000     0.795130000000     0.053594   
H62      H      0.519170000000     0.438860000000     0.847570000000     0.0195781  
H63      H      0.516510000000     0.346420000000     0.939530000000     0.0201926  
H64      H      0.518280000000     0.294210000000     0.887660000000     0.054144   
H65      H      0.846530000000     0.439220000000     0.519010000000     0.0196134  
H66      H      0.793980000000     0.387720000000     0.519100000000     0.0534454  
H67      H      0.886420000000     0.294520000000     0.517770000000     0.0539402  
H68      H      0.938350000000     0.346650000000     0.516900000000     0.0201815  
H69      H      0.766250000000     0.336470000000     0.564590000000     0.0365488  
H70      H      0.713810000000     0.284090000000     0.567600000000     0.0363915  
H71      H      0.780320000000     0.212480000000     0.479650000000     0.0357565  
H72      H      0.832730000000     0.264920000000     0.476550000000     0.0366537  
H73      H      0.660150000000     0.254170000000     0.525950000000     0.0527289  
H74      H      0.608440000000     0.201820000000     0.527990000000     0.0176498  
H75      H      0.700690000000     0.109650000000     0.527570000000     0.0178279  
H76      H      0.753000000000     0.161390000000     0.526200000000     0.0531127  
H77      H      0.939260000000     0.701910000000     0.525290000000     0.0209106  
H78      H      0.887770000000     0.754390000000     0.523000000000     0.0541274  
H79      H      0.794560000000     0.661980000000     0.525300000000     0.0532704  
H80      H      0.846700000000     0.610060000000     0.526780000000     0.0196405  
H81      H      0.835040000000     0.785290000000     0.564480000000     0.0367195  
H82      H      0.782850000000     0.837910000000     0.561460000000     0.0367753  
H83      H      0.714320000000     0.765140000000     0.476050000000     0.0365922  
H84      H      0.766560000000     0.712520000000     0.479000000000     0.0365471  
H85      H      0.754310000000     0.888460000000     0.515040000000     0.0541623  
H86      H      0.701830000000     0.940090000000     0.515310000000     0.0203773  
H87      H      0.609880000000     0.847670000000     0.518270000000     0.0196577  
H88      H      0.661730000000     0.795470000000     0.518690000000     0.0536299  
H89      H      0.108450000000     0.347040000000     0.527360000000     0.0174766  
H90      H      0.160110000000     0.294660000000     0.525170000000     0.0524601  
H91      H      0.253030000000     0.387370000000     0.525250000000     0.0529678  
H92      H      0.200770000000     0.439150000000     0.526760000000     0.0176835  
H93      H      0.213810000000     0.264700000000     0.566710000000     0.0363781  
H94      H      0.266220000000     0.212300000000     0.563640000000     0.0364128  
H95      H      0.332640000000     0.283830000000     0.475530000000     0.0360881  
H96      H      0.280240000000     0.336280000000     0.478660000000     0.035382   
H97      H      0.293930000000     0.161050000000     0.518050000000     0.0530301  
H98      H      0.346500000000     0.109570000000     0.518070000000     0.0193579  
H99      H      0.438290000000     0.202170000000     0.516120000000     0.0191572  
H100     H      0.386330000000     0.254290000000     0.516870000000     0.0534701  
H101     H      0.201860000000     0.608840000000     0.515000000000     0.0190279  
H102     H      0.254300000000     0.660500000000     0.514680000000     0.0534293  
H103     H      0.161680000000     0.753440000000     0.518470000000     0.053518   
H104     H      0.109850000000     0.701210000000     0.518110000000     0.0194888  
H105     H      0.282740000000     0.711030000000     0.561270000000     0.0364034  
H106     H      0.334910000000     0.763670000000     0.564350000000     0.0363513  
H107     H      0.266550000000     0.836400000000     0.478740000000     0.0368117  
H108     H      0.214310000000     0.783770000000     0.475750000000     0.0363627  
H109     H      0.387680000000     0.794510000000     0.522940000000     0.0531804  
H110     H      0.439180000000     0.846980000000     0.525320000000     0.0196811  
H111     H      0.346640000000     0.938850000000     0.526600000000     0.0207774  
H112     H      0.294490000000     0.886940000000     0.525040000000     0.0538309  
H113     H      0.607750000000     0.513380000000     0.202610000000     0.0191373  
H114     H      0.659280000000     0.509910000000     0.255060000000     0.053464   
H115     H      0.752460000000     0.513100000000     0.162670000000     0.0534907  
H116     H      0.700330000000     0.515930000000     0.110790000000     0.019438   
H117     H      0.711390000000     0.554100000000     0.284580000000     0.036377   
H118     H      0.764050000000     0.554240000000     0.336730000000     0.0363266  
H119     H      0.833780000000     0.467530000000     0.266630000000     0.0364845  
H120     H      0.781080000000     0.467560000000     0.214310000000     0.0365202  
H121     H      0.793900000000     0.511510000000     0.388730000000     0.0534508  
H122     H      0.846600000000     0.515050000000     0.439870000000     0.0196233  
H123     H      0.938040000000     0.514220000000     0.346910000000     0.0201469  
H124     H      0.885870000000     0.511540000000     0.295040000000     0.0537412  
H125     H      0.200620000000     0.529300000000     0.438690000000     0.0177154  
H126     H      0.252710000000     0.530610000000     0.386720000000     0.0526226  
H127     H      0.159440000000     0.531820000000     0.294370000000     0.0526838  
H128     H      0.107970000000     0.529770000000     0.346930000000     0.0176767  
H129     H      0.281530000000     0.574850000000     0.334810000000     0.036474   
H130     H      0.334010000000     0.574910000000     0.282330000000     0.036345   
H131     H      0.263950000000     0.488510000000     0.212230000000     0.0350665  
H132     H      0.211520000000     0.488460000000     0.264660000000     0.0350664  
H133     H      0.385980000000     0.530830000000     0.253470000000     0.0526061  
H134     H      0.437960000000     0.529580000000     0.201390000000     0.0176858  
H135     H      0.346210000000     0.529860000000     0.108730000000     0.0176935  
H136     H      0.293640000000     0.531860000000     0.160180000000     0.052672   
H137     H      0.201990000000     0.514080000000     0.608970000000     0.0190761  
H138     H      0.254180000000     0.511580000000     0.660870000000     0.0534181  
H139     H      0.160990000000     0.511450000000     0.753350000000     0.0532848  
H140     H      0.109560000000     0.514810000000     0.700950000000     0.0193906  
H141     H      0.283060000000     0.467830000000     0.712990000000     0.0365523  
H142     H      0.335390000000     0.467810000000     0.765710000000     0.0366658  
H143     H      0.265050000000     0.554250000000     0.835470000000     0.0364792  
H144     H      0.212920000000     0.554430000000     0.782820000000     0.0362483  
H145     H      0.387080000000     0.513030000000     0.794830000000     0.0535235  
H146     H      0.438680000000     0.515650000000     0.847280000000     0.0196056  
H147     H      0.346330000000     0.513070000000     0.939320000000     0.0202254  
H148     H      0.294180000000     0.509820000000     0.887510000000     0.0537679  
H149     H      0.939430000000     0.528650000000     0.702040000000     0.0210054  
H150     H      0.887950000000     0.530400000000     0.754600000000     0.0542879  
H151     H      0.794700000000     0.529520000000     0.662210000000     0.0533261  
H152     H      0.846810000000     0.528510000000     0.610250000000     0.0197069  
H153     H      0.835860000000     0.486910000000     0.784090000000     0.0371164  
H154     H      0.783430000000     0.486860000000     0.836550000000     0.0369944  
H155     H      0.713460000000     0.573580000000     0.766740000000     0.0367292  
H156     H      0.765930000000     0.573630000000     0.714250000000     0.0367357  
H157     H      0.753900000000     0.530350000000     0.888700000000     0.0542097  
H158     H      0.701350000000     0.528540000000     0.940190000000     0.0209873  
H159     H      0.609540000000     0.528220000000     0.847590000000     0.0198012  
H160     H      0.661490000000     0.529300000000     0.795470000000     0.0533422  
H161     H      0.608660000000     0.701830000000     0.021060000000     0.0191533  
H162     H      0.660400000000     0.754170000000     0.020170000000     0.0526154  
H163     H      0.753190000000     0.661320000000     0.019440000000     0.0532447  
H164     H      0.700870000000     0.609620000000     0.021070000000     0.0192887  
H165     H      0.712440000000     0.783180000000     0.976160000000     0.0370343  
H166     H      0.764910000000     0.835690000000     0.976070000000     0.0374183  
H167     H      0.834810000000     0.765930000000     0.062880000000     0.0365593  
H168     H      0.782390000000     0.713480000000     0.062980000000     0.0363831  
H169     H      0.793960000000     0.887800000000     0.020070000000     0.0532223  
H170     H      0.846290000000     0.939580000000     0.020880000000     0.020287   
H171     H      0.938540000000     0.847410000000     0.020590000000     0.0203449  
H172     H      0.886860000000     0.795070000000     0.019060000000     0.0536126  
H173     H      0.700690000000     0.439540000000     0.034750000000     0.0192086  
H174     H      0.753320000000     0.388330000000     0.038290000000     0.0525485  
H175     H      0.661240000000     0.294750000000     0.037910000000     0.0527423  
H176     H      0.609120000000     0.346700000000     0.035210000000     0.0187751  
H177     H      0.783090000000     0.336430000000     0.995340000000     0.0411287  
H178     H      0.835750000000     0.284300000000     0.995410000000     0.0414246  
H179     H      0.766050000000     0.213850000000     0.081800000000     0.0361694  
H180     H      0.713330000000     0.266170000000     0.081890000000     0.0362153  
H181     H      0.887860000000     0.254790000000     0.039480000000     0.0530456  
H182     H      0.939460000000     0.202420000000     0.035920000000     0.019891   
H183     H      0.847000000000     0.110470000000     0.033440000000     0.0189713  
H184     H      0.794790000000     0.162280000000     0.036350000000     0.0525832  
H185     H      0.345770000000     0.608730000000     0.034930000000     0.0187472  
H186     H      0.293380000000     0.660320000000     0.038280000000     0.052571   
H187     H      0.385920000000     0.753380000000     0.035500000000     0.0532118  
H188     H      0.437730000000     0.701160000000     0.032790000000     0.0193252  
H189     H      0.263950000000     0.712510000000     0.994250000000     0.0409071  
H190     H      0.211800000000     0.765180000000     0.994200000000     0.0409052  
H191     H      0.281950000000     0.834790000000     0.080970000000     0.0366877  
H192     H      0.334260000000     0.782070000000     0.080860000000     0.0367726  
H193     H      0.159830000000     0.794880000000     0.037090000000     0.0524645  
H194     H      0.108610000000     0.847520000000     0.033750000000     0.0190705  
H195     H      0.201470000000     0.939080000000     0.034600000000     0.0198873  
H196     H      0.253410000000     0.886960000000     0.037100000000     0.0534379  
H197     H      0.109140000000     0.201590000000     0.019390000000     0.01695    
H198     H      0.161030000000     0.253780000000     0.018080000000     0.051493   
H199     H      0.253540000000     0.160670000000     0.016760000000     0.0521438  
H200     H      0.201080000000     0.109120000000     0.018800000000     0.0170914  
H201     H      0.212930000000     0.282760000000     0.973890000000     0.0364845  
H202     H      0.265450000000     0.335230000000     0.973790000000     0.0366489  
H203     H      0.335600000000     0.265120000000     0.060110000000     0.0345814  
H204     H      0.283150000000     0.212710000000     0.060200000000     0.0346868  
H205     H      0.294510000000     0.387180000000     0.017750000000     0.0515469  
H206     H      0.346720000000     0.439050000000     0.018950000000     0.0170374  
H207     H      0.439170000000     0.347100000000     0.018610000000     0.0171368  
H208     H      0.387610000000     0.294640000000     0.016650000000     0.0520916  
H209     H      0.609440000000     0.030660000000     0.701460000000     0.0192716  
H210     H      0.661180000000     0.030300000000     0.753780000000     0.0530953  
H211     H      0.753960000000     0.034150000000     0.661010000000     0.0528594  
H212     H      0.701600000000     0.033840000000     0.609250000000     0.0189031  
H213     H      0.713730000000     0.073060000000     0.784220000000     0.0368031  
H214     H      0.765970000000     0.070250000000     0.836870000000     0.0370434  
H215     H      0.834540000000     0.984730000000     0.764240000000     0.0410963  
H216     H      0.782380000000     0.987630000000     0.711590000000     0.0409579  
H217     H      0.794170000000     0.024250000000     0.887520000000     0.0532273  
H218     H      0.846410000000     0.022860000000     0.939350000000     0.0202826  
H219     H      0.938790000000     0.024080000000     0.847300000000     0.0202395  
H220     H      0.887210000000     0.026290000000     0.794930000000     0.0528911  
H221     H      0.201700000000     0.032530000000     0.939430000000     0.0198824  
H222     H      0.253890000000     0.031910000000     0.887540000000     0.0536227  
H223     H      0.160780000000     0.030920000000     0.795010000000     0.0525739  
H224     H      0.109230000000     0.030770000000     0.847490000000     0.0189868  
H225     H      0.283460000000     0.073420000000     0.833920000000     0.0368002  
H226     H      0.335900000000     0.070490000000     0.781480000000     0.0365866  
H227     H      0.264440000000     0.982470000000     0.714900000000     0.0411307  
H228     H      0.212060000000     0.985330000000     0.767340000000     0.041194   
H229     H      0.387060000000     0.024060000000     0.754060000000     0.0530032  
H230     H      0.438740000000     0.022630000000     0.701700000000     0.0193752  
H231     H      0.346450000000     0.022190000000     0.609550000000     0.0191378  
H232     H      0.294170000000     0.024300000000     0.661310000000     0.0523949  
H233     H      0.200960000000     0.021920000000     0.109320000000     0.0168995  
H234     H      0.253320000000     0.024100000000     0.160930000000     0.0514267  
H235     H      0.160690000000     0.021990000000     0.253920000000     0.0518254  
H236     H      0.108880000000     0.020630000000     0.201660000000     0.017065   
H237     H      0.284150000000     0.982830000000     0.213760000000     0.0406393  
H238     H      0.336780000000     0.986180000000     0.265920000000     0.0408255  
H239     H      0.263740000000     0.071550000000     0.334210000000     0.0358845  
H240     H      0.211130000000     0.068300000000     0.281990000000     0.034982   
H241     H      0.387140000000     0.033070000000     0.294150000000     0.0522715  
H242     H      0.438900000000     0.033240000000     0.346510000000     0.0187149  
H243     H      0.346700000000     0.030020000000     0.438680000000     0.0191171  
H244     H      0.294380000000     0.029180000000     0.386940000000     0.0525747  
H245     H      0.846760000000     0.030320000000     0.110390000000     0.0189927  
H246     H      0.794460000000     0.029580000000     0.162130000000     0.0526501  
H247     H      0.887250000000     0.033000000000     0.254910000000     0.0532327  
H248     H      0.938990000000     0.033050000000     0.202540000000     0.0199147  
H249     H      0.763900000000     0.071880000000     0.214860000000     0.0359764  
H250     H      0.711250000000     0.068680000000     0.267060000000     0.0353751  
H251     H      0.784090000000     0.983070000000     0.335290000000     0.0412867  
H252     H      0.836750000000     0.986340000000     0.283150000000     0.0415237  
H253     H      0.660710000000     0.022380000000     0.295060000000     0.0521236  
H254     H      0.608860000000     0.020960000000     0.347290000000     0.017294   
H255     H      0.700880000000     0.022190000000     0.439690000000     0.0173824  
H256     H      0.753280000000     0.024410000000     0.388120000000     0.0520432  
H257     H      0.033380000000     0.109820000000     0.847800000000     0.0190979  
H258     H      0.036820000000     0.161130000000     0.795280000000     0.0525614  
H259     H      0.036700000000     0.254530000000     0.887540000000     0.0531487  
H260     H      0.034100000000     0.202480000000     0.939560000000     0.0197511  
H261     H      0.993890000000     0.213100000000     0.765680000000     0.0411195  
H262     H      0.994070000000     0.265220000000     0.713000000000     0.0411125  
H263     H      0.080670000000     0.335470000000     0.782650000000     0.0365637  
H264     H      0.080640000000     0.283160000000     0.835390000000     0.0365301  
H265     H      0.038300000000     0.294450000000     0.660890000000     0.0526057  
H266     H      0.034930000000     0.346720000000     0.609180000000     0.0187721  
H267     H      0.032720000000     0.438870000000     0.701430000000     0.0191716  
H268     H      0.035440000000     0.387170000000     0.753750000000     0.0529841  
H269     H      0.020070000000     0.939490000000     0.847160000000     0.0201571  
H270     H      0.019380000000     0.887720000000     0.794830000000     0.052909   
H271     H      0.018300000000     0.794980000000     0.887720000000     0.0535096  
H272     H      0.019720000000     0.847330000000     0.939410000000     0.0203455  
H273     H      0.975530000000     0.835620000000     0.765660000000     0.0371006  
H274     H      0.975740000000     0.783150000000     0.713160000000     0.0369018  
H275     H      0.062380000000     0.713400000000     0.783290000000     0.0361734  
H276     H      0.062150000000     0.765810000000     0.835740000000     0.0364262  
H277     H      0.019820000000     0.754130000000     0.661200000000     0.0526099  
H278     H      0.020720000000     0.701800000000     0.609440000000     0.0192129  
H279     H      0.020550000000     0.609570000000     0.701620000000     0.0192101  
H280     H      0.018920000000     0.661250000000     0.753960000000     0.0530821  
H281     H      0.032980000000     0.847600000000     0.109510000000     0.0191032  
H282     H      0.036410000000     0.794990000000     0.160750000000     0.0525081  
H283     H      0.036640000000     0.887120000000     0.254270000000     0.0533907  
H284     H      0.034050000000     0.939220000000     0.202300000000     0.0199017  
H285     H      0.993560000000     0.765380000000     0.212810000000     0.041003   
H286     H      0.993700000000     0.712710000000     0.264940000000     0.041066   
H287     H      0.080560000000     0.782170000000     0.335040000000     0.0365689  
H288     H      0.080560000000     0.834910000000     0.282740000000     0.0368468  
H289     H      0.037780000000     0.660480000000     0.294200000000     0.0527104  
H290     H      0.034410000000     0.608850000000     0.346540000000     0.0188268  
H291     H      0.032600000000     0.701210000000     0.438590000000     0.0193018  
H292     H      0.035340000000     0.753460000000     0.386810000000     0.0530521  
H293     H      0.017420000000     0.347200000000     0.439750000000     0.0172363  
H294     H      0.015480000000     0.294760000000     0.388180000000     0.0521772  
H295     H      0.016750000000     0.387320000000     0.295110000000     0.051482   
H296     H      0.017940000000     0.439180000000     0.347330000000     0.0170075  
H297     H      0.059080000000     0.265270000000     0.336270000000     0.0347154  
H298     H      0.059290000000     0.212850000000     0.283840000000     0.0346111  
H299     H      0.973080000000     0.282850000000     0.213440000000     0.0366439  
H300     H      0.972860000000     0.335330000000     0.265940000000     0.0364693  
H301     H      0.015940000000     0.160780000000     0.254180000000     0.0521269  
H302     H      0.018090000000     0.109210000000     0.201750000000     0.0171271  
H303     H      0.018760000000     0.201640000000     0.109770000000     0.0169924  
H304     H      0.017360000000     0.253860000000     0.161630000000     0.0515096  
N1       N      0.526790000000     0.397390000000     0.151660000000    -0.220824   
N2       N      0.519840000000     0.151580000000     0.397460000000    -0.220732   
N3       N      0.530300000000     0.897560000000     0.396690000000    -0.217931   
N4       N      0.517170000000     0.651500000000     0.152110000000    -0.218273   
N5       N      0.521600000000     0.897210000000     0.651510000000    -0.21519    
N6       N      0.526070000000     0.651460000000     0.897280000000    -0.215194   
N7       N      0.529940000000     0.152030000000     0.651520000000    -0.218313   
N8       N      0.518200000000     0.396640000000     0.897600000000    -0.217952   
N9       N      0.896500000000     0.396940000000     0.518340000000    -0.217647   
N10      N      0.650520000000     0.151700000000     0.527610000000    -0.221062   
N11      N      0.897010000000     0.651930000000     0.525910000000    -0.215253   
N12      N      0.651820000000     0.897910000000     0.517200000000    -0.217694   
N13      N      0.150570000000     0.397140000000     0.526890000000    -0.221225   
N14      N      0.396450000000     0.151870000000     0.517500000000    -0.217952   
N15      N      0.151830000000     0.650990000000     0.517000000000    -0.218119   
N16      N      0.396930000000     0.896970000000     0.525860000000    -0.215298   
N17      N      0.650030000000     0.515270000000     0.152680000000    -0.218181   
N18      N      0.896380000000     0.515250000000     0.397360000000    -0.217804   
N19      N      0.150270000000     0.529200000000     0.396880000000    -0.220791   
N20      N      0.396150000000     0.529380000000     0.151040000000    -0.220743   
N21      N      0.151780000000     0.515070000000     0.650930000000    -0.21815    
N22      N      0.396510000000     0.514970000000     0.897330000000    -0.217746   
N23      N      0.897140000000     0.528290000000     0.652080000000    -0.215134   
N24      N      0.651390000000     0.528100000000     0.897910000000    -0.215034   
N25      N      0.650720000000     0.651680000000     0.021350000000    -0.215406   
N26      N      0.896450000000     0.897540000000     0.021020000000    -0.214894   
N27      N      0.650860000000     0.397090000000     0.034340000000    -0.217802   
N28      N      0.897240000000     0.152430000000     0.034060000000    -0.217548   
N29      N      0.395770000000     0.650930000000     0.033280000000    -0.217864   
N30      N      0.151060000000     0.897360000000     0.033570000000    -0.217554   
N31      N      0.151050000000     0.151320000000     0.019440000000    -0.220525   
N32      N      0.396980000000     0.397130000000     0.019130000000    -0.220722   
N33      N      0.651500000000     0.031830000000     0.651320000000    -0.21779    
N34      N      0.896630000000     0.023570000000     0.897380000000    -0.214966   
N35      N      0.151460000000     0.031220000000     0.897510000000    -0.217612   
N36      N      0.396630000000     0.022530000000     0.651570000000    -0.215434   
N37      N      0.150870000000     0.021450000000     0.151460000000    -0.22076    
N38      N      0.396840000000     0.031240000000     0.396620000000    -0.217714   
N39      N      0.896920000000     0.031280000000     0.152440000000    -0.21736    
N40      N      0.650820000000     0.021720000000     0.397520000000    -0.220763   
N41      N      0.033120000000     0.152170000000     0.897720000000    -0.217499   
N42      N      0.033210000000     0.396800000000     0.651290000000    -0.21786    
N43      N      0.020170000000     0.897460000000     0.897320000000    -0.214779   
N44      N      0.020900000000     0.651640000000     0.651480000000    -0.215314   
N45      N      0.032890000000     0.897460000000     0.151930000000    -0.217461   
N46      N      0.032900000000     0.651020000000     0.396580000000    -0.217747   
N47      N      0.018050000000     0.397250000000     0.397570000000    -0.220666   
N48      N      0.018780000000     0.151390000000     0.151700000000    -0.220361   
O1       O      0.021350000000     0.133920000000     0.082820000000    -0.624635   
O2       O      0.027460000000     0.915250000000     0.083360000000    -0.570659   
O3       O      0.965780000000     0.029470000000     0.134800000000    -0.608105   
O4       O      0.081990000000     0.022230000000     0.133920000000    -0.625602   
O5       O      0.133220000000     0.022270000000     0.082630000000    -0.627802   
O6       O      0.914500000000     0.027760000000     0.083650000000    -0.570938   
O7       O      0.029530000000     0.966380000000     0.134650000000    -0.607332   
O8       O      0.021050000000     0.082580000000     0.133990000000    -0.625162   
O9       O      0.064040000000     0.984930000000     0.064720000000    -1.45974    
O10      O      0.984300000000     0.064820000000     0.064840000000    -1.45811    
O11      O      0.977590000000     0.978420000000     0.066380000000    -1.05307    
O12      O      0.065700000000     0.066280000000     0.066390000000    -1.62667    
O13      O      0.022170000000     0.915050000000     0.966190000000    -0.562427   
O14      O      0.029510000000     0.134780000000     0.966610000000    -0.607529   
O15      O      0.914090000000     0.966410000000     0.022940000000    -0.563071   
O16      O      0.133850000000     0.966290000000     0.030200000000    -0.60839    
O17      O      0.133310000000     0.082520000000     0.021710000000    -0.626778   
O18      O      0.914640000000     0.083710000000     0.028730000000    -0.570934   
O19      O      0.965480000000     0.023960000000     0.915030000000    -0.564137   
O20      O      0.082720000000     0.027660000000     0.915240000000    -0.571728   
O21      O      0.914180000000     0.023940000000     0.966300000000    -0.563085   
O22      O      0.133990000000     0.029360000000     0.966420000000    -0.609428   
O23      O      0.965320000000     0.915100000000     0.023070000000    -0.562962   
O24      O      0.966010000000     0.134790000000     0.030320000000    -0.608187   
O25      O      0.082160000000     0.133880000000     0.021970000000    -0.62518    
O26      O      0.082490000000     0.915210000000     0.028270000000    -0.570239   
O27      O      0.022060000000     0.966340000000     0.914940000000    -0.563366   
O28      O      0.027870000000     0.083560000000     0.915390000000    -0.572165   
O29      O      0.064130000000     0.064740000000     0.984980000000    -1.46035    
O30      O      0.984070000000     0.985110000000     0.984890000000    -1.35579    
O31      O      0.977740000000     0.066510000000     0.978530000000    -1.05511    
O32      O      0.065510000000     0.978360000000     0.978400000000    -1.05285    
O33      O      0.020520000000     0.414950000000     0.466380000000    -0.627357   
O34      O      0.027880000000     0.633550000000     0.465310000000    -0.570368   
O35      O      0.965320000000     0.518810000000     0.414460000000    -0.608497   
O36      O      0.081510000000     0.526820000000     0.414770000000    -0.62567    
O37      O      0.132980000000     0.526920000000     0.465810000000    -0.630476   
O38      O      0.914330000000     0.520520000000     0.465910000000    -0.574537   
O39      O      0.029120000000     0.582240000000     0.414180000000    -0.612073   
O40      O      0.020610000000     0.466120000000     0.415050000000    -0.626365   
O41      O      0.064050000000     0.563770000000     0.484000000000    -1.47013    
O42      O      0.983960000000     0.484170000000     0.484390000000    -1.4664     
O43      O      0.977630000000     0.570560000000     0.482680000000    -1.06128    
O44      O      0.065360000000     0.482440000000     0.482430000000    -1.63677    
O45      O      0.022610000000     0.634000000000     0.582600000000    -0.56489    
O46      O      0.029600000000     0.414300000000     0.582470000000    -0.612472   
O47      O      0.914380000000     0.582980000000     0.525580000000    -0.568453   
O48      O      0.134120000000     0.582170000000     0.518970000000    -0.615959   
O49      O      0.133100000000     0.466000000000     0.526130000000    -0.632445   
O50      O      0.914350000000     0.465660000000     0.521800000000    -0.573401   
O51      O      0.965930000000     0.526010000000     0.634210000000    -0.563627   
O52      O      0.083130000000     0.520520000000     0.633440000000    -0.572153   
O53      O      0.914450000000     0.526340000000     0.583130000000    -0.568214   
O54      O      0.134190000000     0.518440000000     0.582070000000    -0.614585   
O55      O      0.965810000000     0.634090000000     0.525270000000    -0.562716   
O56      O      0.965450000000     0.414320000000     0.519830000000    -0.60863    
O57      O      0.081730000000     0.414850000000     0.526380000000    -0.626919   
O58      O      0.083040000000     0.633520000000     0.520930000000    -0.569783   
O59      O      0.022910000000     0.582770000000     0.633920000000    -0.566874   
O60      O      0.027880000000     0.465490000000     0.633730000000    -0.571734   
O61      O      0.064130000000     0.484100000000     0.563860000000    -1.47279    
O62      O      0.984440000000     0.564080000000     0.564160000000    -1.3674     
O63      O      0.977770000000     0.482710000000     0.570780000000    -1.05972    
O64      O      0.065910000000     0.570430000000     0.570370000000    -1.0555     
O65      O      0.633140000000     0.022490000000     0.466330000000    -0.627094   
O66      O      0.414460000000     0.027600000000     0.465390000000    -0.570493   
O67      O      0.528900000000     0.966460000000     0.414210000000    -0.608413   
O68      O      0.521200000000     0.082700000000     0.415030000000    -0.62546    
O69      O      0.521070000000     0.133940000000     0.466320000000    -0.630551   
O70      O      0.527180000000     0.915240000000     0.465430000000    -0.574613   
O71      O      0.465710000000     0.029590000000     0.414220000000    -0.611639   
O72      O      0.581920000000     0.022340000000     0.415030000000    -0.627066   
O73      O      0.484080000000     0.064750000000     0.484160000000    -1.46841    
O74      O      0.564140000000     0.984970000000     0.484110000000    -1.46374    
O75      O      0.477750000000     0.978280000000     0.482580000000    -1.05932    
O76      O      0.565430000000     0.066410000000     0.482640000000    -1.63785    
O77      O      0.414210000000     0.023070000000     0.582680000000    -0.565339   
O78      O      0.633900000000     0.029920000000     0.582460000000    -0.611545   
O79      O      0.465740000000     0.914780000000     0.525380000000    -0.568527   
O80      O      0.465400000000     0.134530000000     0.519330000000    -0.614514   
O81      O      0.581670000000     0.134020000000     0.526810000000    -0.631075   
O82      O      0.583000000000     0.915350000000     0.520960000000    -0.573544   
O83      O      0.522600000000     0.966100000000     0.633950000000    -0.562955   
O84      O      0.526820000000     0.083330000000     0.633740000000    -0.571923   
O85      O      0.522710000000     0.914860000000     0.582640000000    -0.568024   
O86      O      0.528540000000     0.134620000000     0.582590000000    -0.615035   
O87      O      0.414330000000     0.965910000000     0.525440000000    -0.562236   
O88      O      0.634060000000     0.966730000000     0.519180000000    -0.608119   
O89      O      0.633000000000     0.082840000000     0.526750000000    -0.62661    
O90      O      0.414320000000     0.083160000000     0.521060000000    -0.570072   
O91      O      0.465480000000     0.023220000000     0.633960000000    -0.566565   
O92      O      0.582730000000     0.027910000000     0.633710000000    -0.571563   
O93      O      0.563910000000     0.064880000000     0.564080000000    -1.46892    
O94      O      0.484230000000     0.984720000000     0.564050000000    -1.36539    
O95      O      0.565650000000     0.978420000000     0.570510000000    -1.06046    
O96      O      0.477540000000     0.066110000000     0.570520000000    -1.056      
O97      O      0.414420000000     0.466020000000     0.021570000000    -0.62628    
O98      O      0.633040000000     0.465650000000     0.028850000000    -0.571823   
O99      O      0.519300000000     0.414150000000     0.966510000000    -0.609015   
O100     O      0.525910000000     0.414980000000     0.082790000000    -0.6261     
O101     O      0.525550000000     0.466260000000     0.134040000000    -0.630641   
O102     O      0.521270000000     0.465370000000     0.915290000000    -0.575001   
O103     O      0.581940000000     0.414320000000     0.030630000000    -0.611174   
O104     O      0.465780000000     0.414880000000     0.021580000000    -0.627012   
O105     O      0.563130000000     0.484250000000     0.065040000000    -1.4718     
O106     O      0.483700000000     0.484030000000     0.984850000000    -1.46576    
O107     O      0.570140000000     0.482600000000     0.978650000000    -1.05916    
O108     O      0.481780000000     0.482490000000     0.066250000000    -1.63689    
O109     O      0.633170000000     0.582820000000     0.023500000000    -0.56618    
O110     O      0.413440000000     0.582160000000     0.029730000000    -0.61205    
O111     O      0.582440000000     0.526050000000     0.915220000000    -0.567967   
O112     O      0.581280000000     0.518680000000     0.134920000000    -0.615505   
O113     O      0.465090000000     0.527170000000     0.133760000000    -0.631338   
O114     O      0.465160000000     0.520220000000     0.915090000000    -0.573545   
O115     O      0.524750000000     0.633910000000     0.966180000000    -0.563152   
O116     O      0.520430000000     0.633710000000     0.083410000000    -0.572392   
O117     O      0.525070000000     0.582590000000     0.914940000000    -0.568207   
O118     O      0.518450000000     0.582560000000     0.134700000000    -0.615599   
O119     O      0.633510000000     0.525940000000     0.966710000000    -0.56253    
O120     O      0.413810000000     0.518560000000     0.966190000000    -0.6091     
O121     O      0.414060000000     0.526870000000     0.082280000000    -0.626145   
O122     O      0.632730000000     0.520730000000     0.083950000000    -0.570142   
O123     O      0.581840000000     0.634040000000     0.023060000000    -0.565963   
O124     O      0.464520000000     0.633520000000     0.028280000000    -0.571849   
O125     O      0.483270000000     0.563930000000     0.064680000000    -1.47153    
O126     O      0.563350000000     0.564060000000     0.985090000000    -1.36811    
O127     O      0.481960000000     0.570380000000     0.978260000000    -1.06094    
O128     O      0.569620000000     0.570570000000     0.066530000000    -1.05548    


