data_structure

_audit_creation_method RASPA-1.0
_audit_creation_date 2023-5-19
_audit_author_name 'Poobodin Mano'

_cell_length_a    27.0999
_cell_length_b    27.0803
_cell_length_c    27.0797
_cell_angle_alpha 90
_cell_angle_beta  90
_cell_angle_gamma 90
_cell_volume      19873.1

_symmetry_cell_setting          triclinic
_symmetry_space_group_name_Hall 'P 1'
_symmetry_space_group_name_H-M  'P 1'
_symmetry_Int_Tables_number     1

_symmetry_equiv_pos_as_xyz 'x,y,z'

loop_
_atom_site_label
_atom_site_type_symbol
_atom_site_fract_x
_atom_site_fract_y
_atom_site_fract_z
_atom_site_charge
C1       C      0.995220000000     0.118650000000     0.119590000000     0.460675   
C2       C      0.007640000000     0.883300000000     0.120310000000     0.463173   
C3       C      0.881850000000     0.006810000000     0.120160000000     0.462238   
C4       C      0.117580000000     0.997860000000     0.119500000000     0.45961    
C5       C      0.996590000000     0.883060000000     0.883360000000     0.452965   
C6       C      0.008310000000     0.119580000000     0.883790000000     0.463562   
C7       C      0.881680000000     0.883050000000     0.999420000000     0.453359   
C8       C      0.118220000000     0.882790000000     0.007040000000     0.463832   
C9       C      0.117920000000     0.118750000000     0.998560000000     0.458027   
C10      C      0.882470000000     0.120000000000     0.006940000000     0.464625   
C11      C      0.882120000000     0.999890000000     0.883280000000     0.460634   
C12      C      0.118940000000     0.006970000000     0.883990000000     0.464983   
C13      C      0.995150000000     0.382790000000     0.383760000000     0.461582   
C14      C      0.007770000000     0.618120000000     0.382380000000     0.464653   
C15      C      0.881900000000     0.494490000000     0.382930000000     0.463966   
C16      C      0.117500000000     0.503480000000     0.383420000000     0.4626     
C17      C      0.996720000000     0.619040000000     0.619330000000     0.454062   
C18      C      0.008260000000     0.382510000000     0.619560000000     0.464138   
C19      C      0.881900000000     0.618860000000     0.502760000000     0.453283   
C20      C      0.118440000000     0.618800000000     0.495110000000     0.46454    
C21      C      0.117750000000     0.382990000000     0.504380000000     0.46273    
C22      C      0.882320000000     0.381770000000     0.495990000000     0.463685   
C23      C      0.882060000000     0.502310000000     0.619650000000     0.454348   
C24      C      0.118990000000     0.495240000000     0.619100000000     0.465069   
C25      C      0.617510000000     0.997910000000     0.383560000000     0.459129   
C26      C      0.382080000000     0.006500000000     0.382560000000     0.463436   
C27      C      0.507220000000     0.882790000000     0.383140000000     0.463905   
C28      C      0.494540000000     0.118490000000     0.383450000000     0.463076   
C29      C      0.381940000000     0.999790000000     0.619610000000     0.460517   
C30      C      0.618490000000     0.007270000000     0.619360000000     0.463613   
C31      C      0.381900000000     0.882810000000     0.503130000000     0.453466   
C32      C      0.381870000000     0.119610000000     0.495450000000     0.463863   
C33      C      0.617620000000     0.118820000000     0.504030000000     0.462238   
C34      C      0.618720000000     0.883290000000     0.495660000000     0.463976   
C35      C      0.496010000000     0.883160000000     0.619700000000     0.453491   
C36      C      0.507350000000     0.120230000000     0.618820000000     0.464748   
C37      C      0.382180000000     0.382720000000     0.004500000000     0.460612   
C38      C      0.380890000000     0.618360000000     0.996280000000     0.462078   
C39      C      0.381130000000     0.494570000000     0.119470000000     0.463244   
C40      C      0.382220000000     0.503720000000     0.883570000000     0.461629   
C41      C      0.617670000000     0.619080000000     0.003790000000     0.452571   
C42      C      0.617930000000     0.382370000000     0.995950000000     0.462481   
C43      C      0.503590000000     0.618600000000     0.119770000000     0.453568   
C44      C      0.492400000000     0.618980000000     0.883230000000     0.463425   
C45      C      0.505220000000     0.383240000000     0.883530000000     0.463001   
C46      C      0.492380000000     0.381550000000     0.118870000000     0.464262   
C47      C      0.617800000000     0.502070000000     0.119650000000     0.45402    
C48      C      0.617570000000     0.495200000000     0.882650000000     0.464581   
C49      C      0.474710000000     0.318140000000     0.242430000000    -0.0761832  
C50      C      0.487930000000     0.269110000000     0.231380000000     0.0261251  
C51      C      0.501430000000     0.257340000000     0.182620000000    -0.0771899  
C52      C      0.502050000000     0.293650000000     0.145990000000     0.0417128  
C53      C      0.489730000000     0.342780000000     0.157310000000    -0.133816   
C54      C      0.475860000000     0.354590000000     0.205890000000     0.0402095  
C55      C      0.488570000000     0.230610000000     0.270670000000     0.0265265  
C56      C      0.504220000000     0.242230000000     0.318820000000    -0.0781251  
C57      C      0.505700000000     0.205970000000     0.355490000000     0.0401001  
C58      C      0.492120000000     0.157050000000     0.344790000000    -0.140313   
C59      C      0.476370000000     0.145330000000     0.296750000000     0.0413499  
C60      C      0.474360000000     0.181730000000     0.260210000000    -0.0780187  
C61      C      0.525230000000     0.818550000000     0.260030000000    -0.0762871  
C62      C      0.510780000000     0.769870000000     0.271100000000     0.0268998  
C63      C      0.496280000000     0.758610000000     0.319680000000    -0.0763231  
C64      C      0.495920000000     0.795080000000     0.356130000000     0.0406484  
C65      C      0.509540000000     0.843870000000     0.344820000000    -0.133181   
C66      C      0.524380000000     0.855170000000     0.296400000000     0.0409685  
C67      C      0.509920000000     0.731180000000     0.232040000000     0.0260379  
C68      C      0.494950000000     0.742790000000     0.183680000000    -0.0754509  
C69      C      0.493250000000     0.706340000000     0.147210000000     0.0393876  
C70      C      0.505960000000     0.657270000000     0.158320000000    -0.130206   
C71      C      0.520990000000     0.645570000000     0.206590000000     0.0388144  
C72      C      0.523190000000     0.682140000000     0.242940000000    -0.075126   
C73      C      0.476560000000     0.819670000000     0.742960000000    -0.0748748  
C74      C      0.489770000000     0.770610000000     0.732070000000     0.0260339  
C75      C      0.504650000000     0.758970000000     0.683680000000    -0.0752544  
C76      C      0.506320000000     0.795400000000     0.647190000000     0.0392877  
C77      C      0.493670000000     0.844500000000     0.658290000000    -0.129777   
C78      C      0.478730000000     0.856220000000     0.706580000000     0.0387167  
C79      C      0.488900000000     0.731920000000     0.771150000000     0.0268939  
C80      C      0.503360000000     0.743170000000     0.819750000000    -0.0760038  
C81      C      0.503700000000     0.706710000000     0.856210000000     0.0404328  
C82      C      0.490090000000     0.657910000000     0.844910000000    -0.132964   
C83      C      0.475280000000     0.646610000000     0.796480000000     0.040899   
C84      C      0.474460000000     0.683230000000     0.760090000000    -0.0762715  
C85      C      0.498290000000     0.244420000000     0.682640000000    -0.0770394  
C86      C      0.511780000000     0.232630000000     0.731410000000     0.0263241  
C87      C      0.524990000000     0.183590000000     0.742420000000    -0.0759821  
C88      C      0.523840000000     0.147160000000     0.705870000000     0.040287   
C89      C      0.509990000000     0.158990000000     0.657280000000    -0.133792   
C90      C      0.497680000000     0.208130000000     0.645990000000     0.041974   
C91      C      0.511160000000     0.271130000000     0.770710000000     0.0266653  
C92      C      0.525350000000     0.320020000000     0.760260000000    -0.0778095  
C93      C      0.523360000000     0.356400000000     0.796820000000     0.0416525  
C94      C      0.507660000000     0.344680000000     0.844870000000    -0.139992   
C95      C      0.494110000000     0.295740000000     0.855570000000     0.0399717  
C96      C      0.495570000000     0.259490000000     0.818890000000    -0.0777785  
C97      C      0.682310000000     0.242500000000     0.515410000000    -0.0778188  
C98      C      0.730410000000     0.230940000000     0.499510000000     0.0266416  
C99      C      0.740940000000     0.182020000000     0.485590000000    -0.0781638  
C100     C      0.704500000000     0.145610000000     0.487690000000     0.0399567  
C101     C      0.656410000000     0.157290000000     0.503210000000    -0.140616   
C102     C      0.645680000000     0.206150000000     0.516970000000     0.0414223  
C103     C      0.769500000000     0.269590000000     0.497680000000     0.0261994  
C104     C      0.758170000000     0.318310000000     0.483570000000    -0.0760378  
C105     C      0.794810000000     0.354660000000     0.482650000000     0.0400435  
C106     C      0.843750000000     0.343050000000     0.495310000000    -0.133402   
C107     C      0.855260000000     0.294270000000     0.508730000000     0.0417308  
C108     C      0.818560000000     0.258080000000     0.510190000000    -0.0768717  
C109     C      0.818490000000     0.742160000000     0.484230000000    -0.075313   
C110     C      0.769650000000     0.731530000000     0.498260000000     0.0258648  
C111     C      0.758210000000     0.683380000000     0.514140000000    -0.0748683  
C112     C      0.794580000000     0.646790000000     0.515650000000     0.0384525  
C113     C      0.843380000000     0.657610000000     0.501840000000    -0.129951   
C114     C      0.854950000000     0.705760000000     0.486290000000     0.0393168  
C115     C      0.730980000000     0.770590000000     0.496600000000     0.027138   
C116     C      0.742450000000     0.819670000000     0.509220000000    -0.0769057  
C117     C      0.706220000000     0.856330000000     0.508020000000     0.0421841  
C118     C      0.657440000000     0.844750000000     0.494740000000    -0.133371   
C119     C      0.645870000000     0.795810000000     0.481970000000     0.0405166  
C120     C      0.682270000000     0.759210000000     0.482630000000    -0.0760404  
C121     C      0.317460000000     0.243240000000     0.481990000000    -0.0764763  
C122     C      0.269200000000     0.231880000000     0.497480000000     0.0259272  
C123     C      0.258310000000     0.183000000000     0.511270000000    -0.0763467  
C124     C      0.294670000000     0.146510000000     0.509730000000     0.0402656  
C125     C      0.343010000000     0.158030000000     0.494880000000    -0.133424   
C126     C      0.354000000000     0.206790000000     0.480940000000     0.0406547  
C127     C      0.230370000000     0.270740000000     0.499470000000     0.026594   
C128     C      0.241890000000     0.319140000000     0.514480000000    -0.0780387  
C129     C      0.205360000000     0.355550000000     0.516270000000     0.0414321  
C130     C      0.156340000000     0.344320000000     0.503570000000    -0.140859   
C131     C      0.144700000000     0.295900000000     0.488960000000     0.0398944  
C132     C      0.181290000000     0.259660000000     0.486670000000    -0.078303   
C133     C      0.181900000000     0.742520000000     0.510010000000    -0.0763956  
C134     C      0.230740000000     0.731450000000     0.496360000000     0.0270141  
C135     C      0.242050000000     0.683030000000     0.481250000000    -0.0764804  
C136     C      0.205590000000     0.646500000000     0.480450000000     0.0410471  
C137     C      0.156860000000     0.657660000000     0.494280000000    -0.133504   
C138     C      0.145380000000     0.706170000000     0.508720000000     0.040703   
C139     C      0.269640000000     0.770240000000     0.498190000000     0.0259807  
C140     C      0.258690000000     0.819290000000     0.485040000000    -0.0751901  
C141     C      0.294950000000     0.855860000000     0.487280000000     0.0394658  
C142     C      0.343240000000     0.844220000000     0.502180000000    -0.12981    
C143     C      0.354350000000     0.795220000000     0.515180000000     0.0387442  
C144     C      0.317920000000     0.758710000000     0.513440000000    -0.0749899  
C145     C      0.817550000000     0.480270000000     0.259400000000    -0.0765385  
C146     C      0.769200000000     0.495470000000     0.270750000000     0.02683    
C147     C      0.758230000000     0.509330000000     0.319580000000    -0.0764895  
C148     C      0.794610000000     0.508150000000     0.356060000000     0.040735   
C149     C      0.843040000000     0.493600000000     0.344550000000    -0.133591   
C150     C      0.854110000000     0.479570000000     0.295830000000     0.0409718  
C151     C      0.730400000000     0.497220000000     0.231880000000     0.0258955  
C152     C      0.741870000000     0.512380000000     0.183520000000    -0.0752534  
C153     C      0.705360000000     0.514070000000     0.147110000000     0.0387035  
C154     C      0.656400000000     0.501120000000     0.158310000000    -0.130419   
C155     C      0.644810000000     0.486300000000     0.206670000000     0.0394358  
C156     C      0.681400000000     0.484110000000     0.242920000000    -0.0756089  
C157     C      0.240700000000     0.485400000000     0.319860000000    -0.0782693  
C158     C      0.229750000000     0.498450000000     0.270790000000     0.0266784  
C159     C      0.181450000000     0.513670000000     0.259250000000    -0.0778662  
C160     C      0.145020000000     0.515470000000     0.295770000000     0.0413119  
C161     C      0.156150000000     0.502570000000     0.344800000000    -0.140592   
C162     C      0.204450000000     0.487710000000     0.356440000000     0.0401003  
C163     C      0.268660000000     0.496500000000     0.231990000000     0.0259577  
C164     C      0.317530000000     0.510050000000     0.243060000000    -0.076219   
C165     C      0.354090000000     0.508530000000     0.206760000000     0.040263   
C166     C      0.342640000000     0.493970000000     0.158270000000    -0.13327    
C167     C      0.293870000000     0.480280000000     0.147100000000     0.0403283  
C168     C      0.257360000000     0.481310000000     0.183590000000    -0.0764002  
C169     C      0.242680000000     0.509710000000     0.682660000000    -0.0768778  
C170     C      0.231310000000     0.497150000000     0.731780000000     0.0263921  
C171     C      0.182690000000     0.482900000000     0.743200000000    -0.076002   
C172     C      0.146290000000     0.481900000000     0.706610000000     0.0403656  
C173     C      0.157760000000     0.494610000000     0.657620000000    -0.13366    
C174     C      0.206450000000     0.508160000000     0.646000000000     0.0421122  
C175     C      0.270010000000     0.499090000000     0.770830000000     0.0266045  
C176     C      0.318940000000     0.485370000000     0.760180000000    -0.0780027  
C177     C      0.355380000000     0.487550000000     0.796590000000     0.0398631  
C178     C      0.343740000000     0.502930000000     0.844770000000    -0.140163   
C179     C      0.294880000000     0.516510000000     0.855600000000     0.0411914  
C180     C      0.258500000000     0.514880000000     0.819000000000    -0.0775443  
C181     C      0.681330000000     0.508810000000     0.758950000000    -0.0771869  
C182     C      0.730350000000     0.496200000000     0.770500000000     0.0271568  
C183     C      0.741660000000     0.482240000000     0.819270000000    -0.0760528  
C184     C      0.705040000000     0.481560000000     0.855620000000     0.0405782  
C185     C      0.656140000000     0.494320000000     0.843970000000    -0.133687   
C186     C      0.644650000000     0.507590000000     0.795140000000     0.042376   
C187     C      0.769430000000     0.497830000000     0.731870000000     0.0259614  
C188     C      0.758870000000     0.483710000000     0.683000000000    -0.0754671  
C189     C      0.795270000000     0.485760000000     0.646570000000     0.0397399  
C190     C      0.843340000000     0.501390000000     0.658170000000    -0.130499   
C191     C      0.854110000000     0.515270000000     0.706990000000     0.0388291  
C192     C      0.817510000000     0.513780000000     0.743350000000    -0.0750206  
C193     C      0.817850000000     0.759450000000     0.014770000000    -0.072522   
C194     C      0.769000000000     0.770630000000     0.001160000000     0.0209642  
C195     C      0.757730000000     0.819220000000     0.986580000000    -0.068726   
C196     C      0.794240000000     0.855700000000     0.985990000000     0.0353637  
C197     C      0.843030000000     0.844370000000     0.999470000000    -0.123826   
C198     C      0.854440000000     0.795770000000     0.013670000000     0.0330318  
C199     C      0.730100000000     0.731740000000     0.002110000000     0.024375   
C200     C      0.741200000000     0.682880000000     0.988350000000    -0.0727828  
C201     C      0.704860000000     0.646310000000     0.989430000000     0.0428945  
C202     C      0.656340000000     0.657740000000     0.003760000000    -0.133201   
C203     C      0.645090000000     0.706540000000     0.017380000000     0.039059   
C204     C      0.681580000000     0.743040000000     0.016810000000    -0.0756846  
C205     C      0.758240000000     0.183440000000     0.017170000000    -0.0772163  
C206     C      0.769790000000     0.231980000000     0.002690000000     0.0252394  
C207     C      0.818990000000     0.243430000000     0.990750000000    -0.0748902  
C208     C      0.855660000000     0.207320000000     0.993150000000     0.0463477  
C209     C      0.843960000000     0.158700000000     0.006960000000    -0.138079   
C210     C      0.794860000000     0.147150000000     0.019040000000     0.0413529  
C211     C      0.730810000000     0.270600000000     0.000150000000     0.0212534  
C212     C      0.682960000000     0.259060000000     0.983550000000    -0.0701323  
C213     C      0.646320000000     0.295360000000     0.981780000000     0.0376628  
C214     C      0.656850000000     0.344110000000     0.996070000000    -0.127611   
C215     C      0.704780000000     0.355780000000     0.012070000000     0.0345656  
C216     C      0.741210000000     0.319440000000     0.014360000000    -0.0735395  
C217     C      0.317280000000     0.742580000000     0.985960000000    -0.0697433  
C218     C      0.268780000000     0.730970000000     0.000450000000     0.0216938  
C219     C      0.257440000000     0.681720000000     0.012450000000    -0.0740762  
C220     C      0.293600000000     0.645070000000     0.010100000000     0.0359312  
C221     C      0.342160000000     0.656850000000     0.996270000000    -0.1274     
C222     C      0.353610000000     0.705990000000     0.984140000000     0.0372468  
C223     C      0.230110000000     0.769920000000     0.002960000000     0.0249055  
C224     C      0.241580000000     0.817870000000     0.019390000000    -0.0768829  
C225     C      0.205250000000     0.854490000000     0.021130000000     0.0415522  
C226     C      0.156510000000     0.843850000000     0.006970000000    -0.137083   
C227     C      0.144900000000     0.795810000000     0.991130000000     0.0445407  
C228     C      0.181280000000     0.759400000000     0.988880000000    -0.073751   
C229     C      0.318140000000     0.258700000000     0.016870000000    -0.0783814  
C230     C      0.269630000000     0.270080000000     0.002140000000     0.024158   
C231     C      0.258600000000     0.319030000000     0.988650000000    -0.0752446  
C232     C      0.294960000000     0.355590000000     0.990010000000     0.0430006  
C233     C      0.343460000000     0.344080000000     0.004340000000    -0.143256   
C234     C      0.354660000000     0.295190000000     0.017710000000     0.0410965  
C235     C      0.230690000000     0.231190000000     0.000870000000     0.0205281  
C236     C      0.241980000000     0.182610000000     0.986220000000    -0.0713251  
C237     C      0.205440000000     0.146140000000     0.985370000000     0.036922   
C238     C      0.156590000000     0.157450000000     0.998680000000    -0.132907   
C239     C      0.145160000000     0.206030000000     0.012920000000     0.0324305  
C240     C      0.181770000000     0.242340000000     0.014280000000    -0.074705   
C241     C      0.818190000000     0.989600000000     0.759140000000    -0.0731522  
C242     C      0.769860000000     0.004720000000     0.770670000000     0.0241359  
C243     C      0.758900000000     0.017880000000     0.819710000000    -0.0765118  
C244     C      0.795170000000     0.015720000000     0.856290000000     0.0417359  
C245     C      0.843490000000     0.000900000000     0.844650000000    -0.137884   
C246     C      0.854630000000     0.987950000000     0.795640000000     0.0438073  
C247     C      0.730930000000     0.006380000000     0.731900000000     0.0241065  
C248     C      0.742160000000     0.021430000000     0.683440000000    -0.0764895  
C249     C      0.705660000000     0.022080000000     0.646940000000     0.0411776  
C250     C      0.656970000000     0.008160000000     0.658160000000    -0.136696   
C251     C      0.645590000000     0.993750000000     0.706700000000     0.0439209  
C252     C      0.682140000000     0.992610000000     0.743020000000    -0.0734188  
C253     C      0.318640000000     0.018440000000     0.742900000000    -0.0768687  
C254     C      0.269790000000     0.004430000000     0.732290000000     0.0240767  
C255     C      0.258300000000     0.988510000000     0.684170000000    -0.0732105  
C256     C      0.294650000000     0.986950000000     0.647570000000     0.043694   
C257     C      0.343460000000     0.000750000000     0.658370000000    -0.138192   
C258     C      0.355060000000     0.016350000000     0.706490000000     0.0418366  
C259     C      0.231160000000     0.006120000000     0.771350000000     0.0243319  
C260     C      0.242620000000     0.993360000000     0.820390000000    -0.0741354  
C261     C      0.206410000000     0.994550000000     0.857050000000     0.0457203  
C262     C      0.157670000000     0.007960000000     0.845490000000    -0.137154   
C263     C      0.146110000000     0.020900000000     0.796590000000     0.0411045  
C264     C      0.182500000000     0.020250000000     0.759990000000    -0.0764     
C265     C      0.182150000000     0.986530000000     0.243240000000    -0.0717623  
C266     C      0.230210000000     0.002560000000     0.231740000000     0.0215405  
C267     C      0.240760000000     0.016540000000     0.182830000000    -0.0754376  
C268     C      0.204380000000     0.014340000000     0.146390000000     0.033752   
C269     C      0.156320000000     0.998690000000     0.158010000000    -0.134444   
C270     C      0.145560000000     0.984870000000     0.206850000000     0.0379711  
C271     C      0.269270000000     0.004480000000     0.270400000000     0.0245066  
C272     C      0.257900000000     0.018580000000     0.319120000000    -0.0768002  
C273     C      0.294530000000     0.019620000000     0.355470000000     0.040551   
C274     C      0.343500000000     0.007100000000     0.343860000000    -0.13692    
C275     C      0.355050000000     0.993670000000     0.295080000000     0.0452832  
C276     C      0.318360000000     0.992090000000     0.258900000000    -0.0745184  
C277     C      0.741680000000     0.987710000000     0.319680000000    -0.0718193  
C278     C      0.730190000000     0.002720000000     0.271270000000     0.0215907  
C279     C      0.681110000000     0.015540000000     0.260190000000    -0.0751401  
C280     C      0.644500000000     0.013270000000     0.296430000000     0.0333491  
C281     C      0.656110000000     0.998670000000     0.344860000000    -0.134      
C282     C      0.705130000000     0.985950000000     0.356090000000     0.0378466  
C283     C      0.769060000000     0.004730000000     0.232410000000     0.0242784  
C284     C      0.817370000000     0.020050000000     0.243830000000    -0.0768772  
C285     C      0.853940000000     0.021110000000     0.207400000000     0.0408723  
C286     C      0.842960000000     0.007330000000     0.158580000000    -0.136285   
C287     C      0.794580000000     0.992640000000     0.147000000000     0.0435364  
C288     C      0.758190000000     0.991090000000     0.183480000000    -0.0736327  
C289     C      0.000400000000     0.319050000000     0.743950000000    -0.0728975  
C290     C      0.015410000000     0.270690000000     0.732450000000     0.0258687  
C291     C      0.029170000000     0.259780000000     0.683540000000    -0.0755936  
C292     C      0.027090000000     0.296080000000     0.646910000000     0.0401407  
C293     C      0.011660000000     0.344260000000     0.658430000000    -0.131579   
C294     C      0.998790000000     0.355440000000     0.707450000000     0.0370847  
C295     C      0.015380000000     0.231560000000     0.771050000000     0.025825   
C296     C      0.029120000000     0.242430000000     0.819970000000    -0.0754177  
C297     C      0.027060000000     0.206090000000     0.856570000000     0.0400388  
C298     C      0.011660000000     0.157910000000     0.845000000000    -0.131249   
C299     C      0.998780000000     0.146790000000     0.795960000000     0.0369866  
C300     C      0.000370000000     0.183210000000     0.759510000000    -0.0728795  
C301     C      0.008120000000     0.819230000000     0.759300000000    -0.0741269  
C302     C      0.993620000000     0.770650000000     0.770650000000     0.0252626  
C303     C      0.979610000000     0.759610000000     0.819460000000    -0.0748763  
C304     C      0.980620000000     0.796020000000     0.856040000000     0.0385723  
C305     C      0.995160000000     0.844500000000     0.844600000000    -0.130329   
C306     C      0.008620000000     0.855750000000     0.795740000000     0.0402196  
C307     C      0.993690000000     0.731610000000     0.731880000000     0.0255182  
C308     C      0.979850000000     0.742630000000     0.683010000000    -0.0752617  
C309     C      0.980910000000     0.706170000000     0.646480000000     0.0389381  
C310     C      0.995320000000     0.657680000000     0.658010000000    -0.131302   
C311     C      0.008650000000     0.646470000000     0.706910000000     0.0405785  
C312     C      0.008100000000     0.683020000000     0.743310000000    -0.07453    
C313     C      0.999850000000     0.818770000000     0.244150000000    -0.0775619  
C314     C      0.014450000000     0.770380000000     0.232130000000     0.0275561  
C315     C      0.027910000000     0.759870000000     0.183050000000    -0.0758075  
C316     C      0.025910000000     0.796540000000     0.146790000000     0.0402001  
C317     C      0.010960000000     0.844740000000     0.158860000000    -0.132123   
C318     C      0.998420000000     0.855560000000     0.208030000000     0.0408712  
C319     C      0.014500000000     0.730880000000     0.270400000000     0.0277382  
C320     C      0.028190000000     0.741400000000     0.319410000000    -0.0759706  
C321     C      0.026240000000     0.704770000000     0.355710000000     0.0405711  
C322     C      0.011110000000     0.656600000000     0.343750000000    -0.132649   
C323     C      0.998390000000     0.645750000000     0.294630000000     0.0410339  
C324     C      0.999780000000     0.682510000000     0.258460000000    -0.0778046  
C325     C      0.006060000000     0.318790000000     0.259690000000    -0.0769673  
C326     C      0.991660000000     0.270200000000     0.271130000000     0.0251137  
C327     C      0.977880000000     0.259210000000     0.320040000000    -0.0776658  
C328     C      0.979030000000     0.295680000000     0.356590000000     0.0408154  
C329     C      0.993480000000     0.344170000000     0.345040000000    -0.14064    
C330     C      0.006700000000     0.355350000000     0.296110000000     0.0405308  
C331     C      0.991640000000     0.231090000000     0.232360000000     0.0250893  
C332     C      0.977870000000     0.242120000000     0.183470000000    -0.0776611  
C333     C      0.979050000000     0.205700000000     0.146880000000     0.0407243  
C334     C      0.993500000000     0.157200000000     0.158380000000    -0.140538   
C335     C      0.006660000000     0.145950000000     0.207320000000     0.0403036  
C336     C      0.006000000000     0.182480000000     0.243770000000    -0.0769869  
Eu1      Eu     0.999250000000     0.000430000000     0.089340000000     3.45332    
Eu2      Eu     0.999970000000     0.913070000000     0.001780000000     3.01964    
Eu3      Eu     0.999640000000     0.088740000000     0.001110000000     3.45559    
Eu4      Eu     0.912050000000     0.001380000000     0.001710000000     3.0108     
Eu5      Eu     0.087650000000     0.000330000000     0.001200000000     3.45938    
Eu6      Eu     0.000370000000     0.001270000000     0.913580000000     3.05064    
Eu7      Eu     0.999250000000     0.501090000000     0.413690000000     3.47388    
Eu8      Eu     0.000110000000     0.588700000000     0.500980000000     3.03531    
Eu9      Eu     0.999530000000     0.413030000000     0.502160000000     3.46991    
Eu10     Eu     0.912060000000     0.500450000000     0.501310000000     3.03578    
Eu11     Eu     0.087660000000     0.501360000000     0.501810000000     3.49897    
Eu12     Eu     0.000380000000     0.500740000000     0.589450000000     3.049      
Eu13     Eu     0.499280000000     0.000210000000     0.413720000000     3.45621    
Eu14     Eu     0.411980000000     0.001160000000     0.501180000000     3.01524    
Eu15     Eu     0.587490000000     0.000560000000     0.501960000000     3.4596     
Eu16     Eu     0.500150000000     0.913010000000     0.501420000000     3.05154    
Eu17     Eu     0.499250000000     0.088810000000     0.501750000000     3.49959    
Eu18     Eu     0.500120000000     0.001510000000     0.589440000000     3.02935    
Eu19     Eu     0.412160000000     0.501100000000     0.002060000000     3.458      
Eu20     Eu     0.499410000000     0.588700000000     0.001550000000     3.01253    
Eu21     Eu     0.500510000000     0.413000000000     0.001820000000     3.4624     
Eu22     Eu     0.499540000000     0.500290000000     0.089540000000     3.04998    
Eu23     Eu     0.500390000000     0.501530000000     0.913770000000     3.4981     
Eu24     Eu     0.587720000000     0.500700000000     0.001280000000     3.02686    
H1       H      0.954470000000     0.955360000000     0.083360000000    -0.176019   
H2       H      0.071480000000     0.072800000000     0.073630000000     0.408768   
H3       H      0.954980000000     0.082930000000     0.955910000000    -0.174913   
H4       H      0.081520000000     0.955590000000     0.956280000000    -0.179155   
H5       H      0.954490000000     0.546230000000     0.419500000000    -0.177892   
H6       H      0.071360000000     0.428750000000     0.429540000000     0.411707   
H7       H      0.954820000000     0.418960000000     0.547360000000    -0.176413   
H8       H      0.081620000000     0.546300000000     0.546590000000    -0.185929   
H9       H      0.454530000000     0.955130000000     0.419730000000    -0.17441    
H10      H      0.571190000000     0.072830000000     0.429290000000     0.409922   
H11      H      0.581500000000     0.955760000000     0.546930000000    -0.1785     
H12      H      0.454530000000     0.082930000000     0.546860000000    -0.183406   
H13      H      0.418170000000     0.545820000000     0.047000000000    -0.182341   
H14      H      0.428500000000     0.428810000000     0.929430000000     0.410655   
H15      H      0.545150000000     0.418930000000     0.046970000000    -0.178219   
H16      H      0.545080000000     0.546640000000     0.919840000000    -0.184041   
H17      H      0.512640000000     0.220230000000     0.172830000000     0.046284   
H18      H      0.513280000000     0.283320000000     0.109010000000     0.0269806  
H19      H      0.465630000000     0.391980000000     0.215750000000     0.0293952  
H20      H      0.463190000000     0.328430000000     0.279300000000     0.0469696  
H21      H      0.516290000000     0.279200000000     0.328100000000     0.046656   
H22      H      0.518360000000     0.216200000000     0.392030000000     0.0238768  
H23      H      0.465090000000     0.108110000000     0.287400000000     0.0287196  
H24      H      0.461240000000     0.171550000000     0.223840000000     0.0467752  
H25      H      0.484120000000     0.721800000000     0.329440000000     0.0474225  
H26      H      0.483900000000     0.785120000000     0.392960000000     0.0290976  
H27      H      0.535580000000     0.892290000000     0.286540000000     0.0305492  
H28      H      0.537490000000     0.828400000000     0.223270000000     0.0474705  
H29      H      0.483630000000     0.779910000000     0.174080000000     0.0470886  
H30      H      0.481180000000     0.716600000000     0.110480000000     0.029113   
H31      H      0.531580000000     0.608240000000     0.216280000000     0.0298289  
H32      H      0.535730000000     0.671960000000     0.279520000000     0.0471005  
H33      H      0.515930000000     0.721830000000     0.674080000000     0.0470926  
H34      H      0.518330000000     0.785120000000     0.610450000000     0.0293896  
H35      H      0.468190000000     0.893570000000     0.716270000000     0.0305517  
H36      H      0.464080000000     0.829880000000     0.779540000000     0.0475185  
H37      H      0.515520000000     0.779990000000     0.829520000000     0.0477829  
H38      H      0.515690000000     0.716670000000     0.893050000000     0.0297136  
H39      H      0.464090000000     0.609490000000     0.786620000000     0.030255   
H40      H      0.462220000000     0.673360000000     0.723330000000     0.0473879  
H41      H      0.536510000000     0.173270000000     0.779300000000     0.0472012  
H42      H      0.534070000000     0.109760000000     0.715710000000     0.0293572  
H43      H      0.486460000000     0.218480000000     0.609020000000     0.0273623  
H44      H      0.487090000000     0.281540000000     0.672870000000     0.0466591  
H45      H      0.538430000000     0.330210000000     0.723890000000     0.0473929  
H46      H      0.534610000000     0.393630000000     0.787470000000     0.0292705  
H47      H      0.481480000000     0.285500000000     0.892120000000     0.024383   
H48      H      0.483520000000     0.222510000000     0.828170000000     0.0467807  
H49      H      0.777220000000     0.171840000000     0.472280000000     0.0464414  
H50      H      0.713920000000     0.108450000000     0.476270000000     0.0235864  
H51      H      0.609080000000     0.216310000000     0.529450000000     0.0287013  
H52      H      0.673000000000     0.279520000000     0.527270000000     0.0473364  
H53      H      0.721040000000     0.328380000000     0.472790000000     0.046652   
H54      H      0.784750000000     0.391810000000     0.471740000000     0.0294867  
H55      H      0.892480000000     0.284110000000     0.519190000000     0.0273126  
H56      H      0.828610000000     0.221250000000     0.522060000000     0.0470253  
H57      H      0.721240000000     0.674000000000     0.526060000000     0.0470783  
H58      H      0.784500000000     0.610160000000     0.528150000000     0.029634   
H59      H      0.892050000000     0.715260000000     0.474840000000     0.0294782  
H60      H      0.828580000000     0.778490000000     0.470940000000     0.0472292  
H61      H      0.779270000000     0.829740000000     0.521010000000     0.0475498  
H62      H      0.716330000000     0.893560000000     0.518570000000     0.0280411  
H63      H      0.608730000000     0.785720000000     0.471160000000     0.0295233  
H64      H      0.672230000000     0.722070000000     0.471770000000     0.0473986  
H65      H      0.221860000000     0.172990000000     0.524220000000     0.0470052  
H66      H      0.284990000000     0.109440000000     0.521220000000     0.0287399  
H67      H      0.390790000000     0.216840000000     0.468950000000     0.0298422  
H68      H      0.327010000000     0.280250000000     0.470250000000     0.0465245  
H69      H      0.279070000000     0.328860000000     0.525460000000     0.0471299  
H70      H      0.215540000000     0.392410000000     0.528020000000     0.0286185  
H71      H      0.107430000000     0.286050000000     0.478390000000     0.0240394  
H72      H      0.171140000000     0.223080000000     0.474110000000     0.0464644  
H73      H      0.279030000000     0.673340000000     0.469640000000     0.0474638  
H74      H      0.215610000000     0.609590000000     0.468760000000     0.029968   
H75      H      0.108340000000     0.716000000000     0.520080000000     0.0293307  
H76      H      0.171920000000     0.779110000000     0.522660000000     0.0476377  
H77      H      0.222200000000     0.829430000000     0.472280000000     0.0473725  
H78      H      0.285220000000     0.893120000000     0.476470000000     0.0300913  
H79      H      0.391110000000     0.785060000000     0.527160000000     0.0297037  
H80      H      0.327520000000     0.721570000000     0.524680000000     0.0470409  
H81      H      0.721690000000     0.522070000000     0.329570000000     0.0473238  
H82      H      0.784870000000     0.519690000000     0.393100000000     0.0290864  
H83      H      0.890970000000     0.467780000000     0.285790000000     0.0298206  
H84      H      0.827160000000     0.468490000000     0.222420000000     0.047109   
H85      H      0.778990000000     0.523590000000     0.173850000000     0.0468176  
H86      H      0.715490000000     0.526000000000     0.110300000000     0.0293139  
H87      H      0.607580000000     0.475540000000     0.216480000000     0.02927    
H88      H      0.671310000000     0.471440000000     0.279480000000     0.0469437  
H89      H      0.171830000000     0.524830000000     0.222080000000     0.0472045  
H90      H      0.108250000000     0.527420000000     0.285610000000     0.0289103  
H91      H      0.214200000000     0.476950000000     0.393720000000     0.0240184  
H92      H      0.277180000000     0.472650000000     0.330030000000     0.0466468  
H93      H      0.327510000000     0.522770000000     0.279620000000     0.0472672  
H94      H      0.391150000000     0.519820000000     0.216610000000     0.0290336  
H95      H      0.283860000000     0.468520000000     0.110200000000     0.0295099  
H96      H      0.220350000000     0.469770000000     0.173890000000     0.0462931  
H97      H      0.172720000000     0.472080000000     0.780380000000     0.0468864  
H98      H      0.109210000000     0.470900000000     0.716740000000     0.0295666  
H99      H      0.216480000000     0.518670000000     0.608740000000     0.0274477  
H100     H      0.279430000000     0.521690000000     0.672530000000     0.0472316  
H101     H      0.329090000000     0.472160000000     0.723830000000     0.0466641  
H102     H      0.392530000000     0.476270000000     0.787070000000     0.023911   
H103     H      0.284730000000     0.528880000000     0.892260000000     0.0292398  
H104     H      0.221480000000     0.526590000000     0.828400000000     0.0476595  
H105     H      0.778770000000     0.471410000000     0.829370000000     0.0476333  
H106     H      0.715070000000     0.470760000000     0.892810000000     0.0299572  
H107     H      0.607450000000     0.518110000000     0.784950000000     0.0275423  
H108     H      0.671320000000     0.520570000000     0.722070000000     0.047372   
H109     H      0.722580000000     0.470360000000     0.672900000000     0.0470989  
H110     H      0.785830000000     0.474230000000     0.609440000000     0.0294343  
H111     H      0.890690000000     0.527840000000     0.717080000000     0.0293992  
H112     H      0.826830000000     0.525760000000     0.780340000000     0.0471905  
H113     H      0.720770000000     0.829060000000     0.975010000000     0.0469455  
H114     H      0.784240000000     0.892680000000     0.974470000000     0.03166    
H115     H      0.891520000000     0.785820000000     0.024770000000     0.0302524  
H116     H      0.827810000000     0.722730000000     0.027050000000     0.0456287  
H117     H      0.777850000000     0.672910000000     0.975950000000     0.0476429  
H118     H      0.714730000000     0.609210000000     0.978210000000     0.0296954  
H119     H      0.608170000000     0.716530000000     0.029010000000     0.0293798  
H120     H      0.671820000000     0.780000000000     0.028500000000     0.046708   
H121     H      0.829160000000     0.280150000000     0.978650000000     0.0479284  
H122     H      0.893020000000     0.217380000000     0.983070000000     0.0274862  
H123     H      0.784670000000     0.110110000000     0.030170000000     0.0284314  
H124     H      0.720950000000     0.173480000000     0.027520000000     0.0464755  
H125     H      0.673840000000     0.222050000000     0.971470000000     0.046739   
H126     H      0.609830000000     0.285230000000     0.968950000000     0.0311444  
H127     H      0.714060000000     0.392850000000     0.023920000000     0.0297562  
H128     H      0.777320000000     0.329560000000     0.028170000000     0.0457563  
H129     H      0.220770000000     0.671480000000     0.024580000000     0.045879   
H130     H      0.283620000000     0.607690000000     0.020230000000     0.0282121  
H131     H      0.390610000000     0.716230000000     0.973000000000     0.0309379  
H132     H      0.327170000000     0.779900000000     0.975570000000     0.0470799  
H133     H      0.278570000000     0.827100000000     0.031380000000     0.0470648  
H134     H      0.215350000000     0.891050000000     0.033830000000     0.0297503  
H135     H      0.107850000000     0.786430000000     0.979410000000     0.0296156  
H136     H      0.171190000000     0.723210000000     0.975200000000     0.0480123  
H137     H      0.221980000000     0.329100000000     0.976240000000     0.047079   
H138     H      0.285120000000     0.392750000000     0.978960000000     0.0244581  
H139     H      0.391560000000     0.285120000000     0.029320000000     0.0282095  
H140     H      0.327880000000     0.221660000000     0.028370000000     0.0458284  
H141     H      0.278980000000     0.172770000000     0.974780000000     0.0459713  
H142     H      0.215460000000     0.109180000000     0.973830000000     0.0300237  
H143     H      0.108030000000     0.215970000000     0.023900000000     0.0249284  
H144     H      0.171760000000     0.279030000000     0.026620000000     0.0448494  
H145     H      0.722380000000     0.030550000000     0.829860000000     0.0469818  
H146     H      0.785410000000     0.026500000000     0.893550000000     0.028996   
H147     H      0.891410000000     0.976030000000     0.785490000000     0.0288618  
H148     H      0.827820000000     0.978370000000     0.721990000000     0.0476081  
H149     H      0.779110000000     0.033130000000     0.673690000000     0.0467313  
H150     H      0.715620000000     0.033750000000     0.609990000000     0.0296344  
H151     H      0.608580000000     0.982320000000     0.716590000000     0.0294016  
H152     H      0.672220000000     0.979990000000     0.779640000000     0.0479378  
H153     H      0.221330000000     0.976600000000     0.674830000000     0.0478169  
H154     H      0.284550000000     0.974410000000     0.610960000000     0.0289451  
H155     H      0.392170000000     0.027790000000     0.715960000000     0.0283561  
H156     H      0.328730000000     0.031750000000     0.779220000000     0.0467598  
H157     H      0.279430000000     0.981470000000     0.830420000000     0.0479432  
H158     H      0.216490000000     0.983880000000     0.894250000000     0.0282497  
H159     H      0.108990000000     0.031820000000     0.786530000000     0.0290969  
H160     H      0.172480000000     0.031210000000     0.722870000000     0.046751   
H161     H      0.277010000000     0.029950000000     0.172710000000     0.0449634  
H162     H      0.213810000000     0.025830000000     0.109250000000     0.024036   
H163     H      0.108980000000     0.972300000000     0.216960000000     0.0302813  
H164     H      0.172840000000     0.974630000000     0.280260000000     0.0469392  
H165     H      0.220730000000     0.029260000000     0.329180000000     0.0459972  
H166     H      0.284440000000     0.030510000000     0.392610000000     0.0288401  
H167     H      0.392300000000     0.983300000000     0.284930000000     0.0277628  
H168     H      0.328440000000     0.980220000000     0.222080000000     0.0476079  
H169     H      0.670960000000     0.028110000000     0.223610000000     0.0451064  
H170     H      0.607240000000     0.023870000000     0.286580000000     0.0246949  
H171     H      0.715290000000     0.974200000000     0.392950000000     0.0302472  
H172     H      0.778830000000     0.976710000000     0.329420000000     0.0468659  
H173     H      0.826930000000     0.031680000000     0.280870000000     0.0460289  
H174     H      0.890750000000     0.032980000000     0.217510000000     0.0293413  
H175     H      0.784890000000     0.981280000000     0.109900000000     0.0289863  
H176     H      0.721710000000     0.978260000000     0.173400000000     0.0475211  
H177     H      0.041780000000     0.223190000000     0.673500000000     0.0471874  
H178     H      0.037800000000     0.286360000000     0.609610000000     0.0305509  
H179     H      0.986420000000     0.392100000000     0.717600000000     0.0295251  
H180     H      0.988740000000     0.328650000000     0.780970000000     0.0458716  
H181     H      0.041710000000     0.279010000000     0.830050000000     0.0473641  
H182     H      0.037770000000     0.215770000000     0.893880000000     0.031017   
H183     H      0.986420000000     0.110140000000     0.785770000000     0.0291849  
H184     H      0.988710000000     0.173640000000     0.722480000000     0.0455572  
H185     H      0.967370000000     0.722880000000     0.829440000000     0.0470927  
H186     H      0.969520000000     0.786200000000     0.893190000000     0.0303417  
H187     H      0.020400000000     0.892630000000     0.785690000000     0.030079   
H188     H      0.019980000000     0.828980000000     0.722380000000     0.0475146  
H189     H      0.967690000000     0.779370000000     0.672970000000     0.0471     
H190     H      0.969930000000     0.715970000000     0.609280000000     0.0297005  
H191     H      0.020340000000     0.609590000000     0.717040000000     0.0295225  
H192     H      0.019840000000     0.673290000000     0.780270000000     0.0475127  
H193     H      0.040240000000     0.723310000000     0.172570000000     0.0473753  
H194     H      0.036380000000     0.787110000000     0.109350000000     0.0297215  
H195     H      0.986390000000     0.892230000000     0.218530000000     0.0278969  
H196     H      0.988400000000     0.828110000000     0.281300000000     0.0473661  
H197     H      0.040650000000     0.777930000000     0.329820000000     0.047736   
H198     H      0.036860000000     0.714210000000     0.393100000000     0.0299994  
H199     H      0.986240000000     0.609100000000     0.284220000000     0.0272929  
H200     H      0.988180000000     0.673150000000     0.221360000000     0.0470896  
H201     H      0.965710000000     0.222490000000     0.330110000000     0.0466998  
H202     H      0.968120000000     0.285890000000     0.393800000000     0.0287704  
H203     H      0.018410000000     0.392230000000     0.285960000000     0.0242644  
H204     H      0.017760000000     0.328530000000     0.222720000000     0.0460153  
H205     H      0.965710000000     0.278860000000     0.173410000000     0.0467274  
H206     H      0.968160000000     0.215530000000     0.109670000000     0.0285542  
H207     H      0.018360000000     0.109060000000     0.217430000000     0.0239393  
H208     H      0.017680000000     0.172710000000     0.280740000000     0.0459204  
O1       O      0.995900000000     0.133800000000     0.072210000000    -0.616037   
O2       O      0.005240000000     0.868230000000     0.072970000000    -0.560051   
O3       O      0.929200000000     0.007040000000     0.135350000000    -0.599947   
O4       O      0.070220000000     0.998020000000     0.134610000000    -0.612288   
O5       O      0.132650000000     0.998750000000     0.072140000000    -0.61796    
O6       O      0.867020000000     0.004120000000     0.072780000000    -0.563314   
O7       O      0.006210000000     0.930650000000     0.135420000000    -0.600612   
O8       O      0.996740000000     0.071280000000     0.134610000000    -0.61848    
O9       O      0.048650000000     0.952840000000     0.050430000000    -1.45305    
O10      O      0.951850000000     0.049930000000     0.050350000000    -1.45379    
O11      O      0.943830000000     0.945030000000     0.052200000000    -1.04977    
O12      O      0.050570000000     0.051590000000     0.052430000000    -1.62349    
O13      O      0.996830000000     0.867920000000     0.930770000000    -0.553393   
O14      O      0.008090000000     0.134670000000     0.931200000000    -0.597807   
O15      O      0.866690000000     0.930490000000     0.999220000000    -0.550941   
O16      O      0.133440000000     0.930140000000     0.007920000000    -0.599716   
O17      O      0.132920000000     0.071320000000     0.998490000000    -0.613061   
O18      O      0.867330000000     0.072650000000     0.005450000000    -0.561649   
O19      O      0.929510000000     0.999860000000     0.868220000000    -0.557991   
O20      O      0.071650000000     0.004970000000     0.868810000000    -0.56415    
O21      O      0.867030000000     0.000770000000     0.930680000000    -0.557617   
O22      O      0.133870000000     0.006290000000     0.931420000000    -0.602962   
O23      O      0.929030000000     0.867940000000     0.001000000000    -0.558819   
O24      O      0.929850000000     0.134970000000     0.006200000000    -0.60475    
O25      O      0.070590000000     0.133870000000     0.999880000000    -0.614885   
O26      O      0.070890000000     0.867990000000     0.003950000000    -0.563979   
O27      O      0.998450000000     0.930430000000     0.868320000000    -0.559471   
O28      O      0.004610000000     0.072330000000     0.868770000000    -0.565896   
O29      O      0.048960000000     0.049710000000     0.953590000000    -1.45812    
O30      O      0.951810000000     0.953050000000     0.953280000000    -1.35707    
O31      O      0.944300000000     0.051800000000     0.945530000000    -1.05253    
O32      O      0.050520000000     0.944940000000     0.945620000000    -1.04783    
O33      O      0.995770000000     0.367760000000     0.431180000000    -0.616472   
O34      O      0.005420000000     0.633320000000     0.429680000000    -0.561702   
O35      O      0.929240000000     0.494260000000     0.367740000000    -0.601936   
O36      O      0.070130000000     0.503280000000     0.368370000000    -0.617499   
O37      O      0.132630000000     0.502720000000     0.430780000000    -0.622678   
O38      O      0.867050000000     0.497400000000     0.430290000000    -0.564701   
O39      O      0.006230000000     0.570740000000     0.367390000000    -0.603417   
O40      O      0.996710000000     0.430120000000     0.368620000000    -0.619975   
O41      O      0.048700000000     0.548720000000     0.452440000000    -1.46424    
O42      O      0.951810000000     0.451750000000     0.452810000000    -1.46133    
O43      O      0.943930000000     0.556630000000     0.450670000000    -1.056      
O44      O      0.050490000000     0.449990000000     0.450740000000    -1.63187    
O45      O      0.997020000000     0.634050000000     0.571880000000    -0.557104   
O46      O      0.007970000000     0.367300000000     0.572190000000    -0.600696   
O47      O      0.866800000000     0.571450000000     0.503280000000    -0.55631    
O48      O      0.133560000000     0.571410000000     0.494560000000    -0.603567   
O49      O      0.132820000000     0.430380000000     0.504460000000    -0.620855   
O50      O      0.867240000000     0.429150000000     0.497490000000    -0.561575   
O51      O      0.929440000000     0.502370000000     0.634760000000    -0.557847   
O52      O      0.071690000000     0.497230000000     0.634260000000    -0.562725   
O53      O      0.867010000000     0.501290000000     0.572250000000    -0.559024   
O54      O      0.133900000000     0.495720000000     0.571650000000    -0.606068   
O55      O      0.929270000000     0.633890000000     0.501310000000    -0.5589     
O56      O      0.929700000000     0.366770000000     0.496950000000    -0.603733   
O57      O      0.070420000000     0.367900000000     0.503270000000    -0.620367   
O58      O      0.071140000000     0.633700000000     0.498340000000    -0.563746   
O59      O      0.998500000000     0.571710000000     0.634490000000    -0.560939   
O60      O      0.004600000000     0.429800000000     0.634470000000    -0.565536   
O61      O      0.048930000000     0.452130000000     0.549570000000    -1.46524    
O62      O      0.951880000000     0.548900000000     0.549590000000    -1.36517    
O63      O      0.944240000000     0.450160000000     0.557640000000    -1.05694    
O64      O      0.050610000000     0.556950000000     0.557230000000    -1.05221    
O65      O      0.632610000000     0.997870000000     0.430950000000    -0.613689   
O66      O      0.367050000000     0.005020000000     0.429950000000    -0.560637   
O67      O      0.507200000000     0.930150000000     0.367920000000    -0.599015   
O68      O      0.495230000000     0.071070000000     0.368460000000    -0.616641   
O69      O      0.496410000000     0.133750000000     0.430730000000    -0.622993   
O70      O      0.503830000000     0.867930000000     0.430460000000    -0.565902   
O71      O      0.429440000000     0.005510000000     0.367530000000    -0.603306   
O72      O      0.570160000000     0.999020000000     0.368510000000    -0.616065   
O73      O      0.451760000000     0.049730000000     0.452520000000    -1.46009    
O74      O      0.548710000000     0.952780000000     0.452750000000    -1.45802    
O75      O      0.443980000000     0.944800000000     0.450910000000    -1.05428    
O76      O      0.550350000000     0.051630000000     0.450580000000    -1.62882    
O77      O      0.366810000000     0.999220000000     0.572210000000    -0.55406    
O78      O      0.633520000000     0.007790000000     0.571940000000    -0.600631   
O79      O      0.429280000000     0.867710000000     0.503140000000    -0.557903   
O80      O      0.429220000000     0.134790000000     0.495110000000    -0.603281   
O81      O      0.570280000000     0.133990000000     0.503890000000    -0.620373   
O82      O      0.571400000000     0.868160000000     0.497750000000    -0.563476   
O83      O      0.496620000000     0.930600000000     0.634730000000    -0.554457   
O84      O      0.505130000000     0.072910000000     0.634050000000    -0.561099   
O85      O      0.497920000000     0.867980000000     0.572370000000    -0.560339   
O86      O      0.506030000000     0.135140000000     0.571400000000    -0.606666   
O87      O      0.366860000000     0.930210000000     0.502130000000    -0.55506    
O88      O      0.633660000000     0.930720000000     0.496180000000    -0.601633   
O89      O      0.632620000000     0.071430000000     0.503240000000    -0.619869   
O90      O      0.367020000000     0.072250000000     0.498290000000    -0.562606   
O91      O      0.429300000000     0.001250000000     0.634630000000    -0.561505   
O92      O      0.571220000000     0.004070000000     0.634340000000    -0.565176   
O93      O      0.548620000000     0.050060000000     0.549430000000    -1.46172    
O94      O      0.451850000000     0.953000000000     0.549730000000    -1.36037    
O95      O      0.550490000000     0.945160000000     0.557610000000    -1.05163    
O96      O      0.443940000000     0.051800000000     0.557310000000    -1.05084    
O97      O      0.429560000000     0.367670000000     0.004180000000    -0.616684   
O98      O      0.428180000000     0.633520000000     0.998230000000    -0.558091   
O99      O      0.366110000000     0.493940000000     0.072040000000    -0.599611   
O100     O      0.367070000000     0.503790000000     0.930960000000    -0.614634   
O101     O      0.429570000000     0.502620000000     0.868550000000    -0.623605   
O102     O      0.428420000000     0.497770000000     0.134430000000    -0.565936   
O103     O      0.365960000000     0.570920000000     0.996570000000    -0.6001     
O104     O      0.367090000000     0.430090000000     0.003590000000    -0.61907    
O105     O      0.450920000000     0.548870000000     0.952740000000    -1.45734    
O106     O      0.451110000000     0.451680000000     0.049520000000    -1.45978    
O107     O      0.449110000000     0.556540000000     0.057720000000    -1.0499     
O108     O      0.449340000000     0.450060000000     0.950660000000    -1.62709    
O109     O      0.570260000000     0.634100000000     0.003640000000    -0.554007   
O110     O      0.570610000000     0.367100000000     0.995420000000    -0.598002   
O111     O      0.503020000000     0.571170000000     0.134820000000    -0.558619   
O112     O      0.492460000000     0.571610000000     0.868000000000    -0.60309    
O113     O      0.504470000000     0.430650000000     0.868530000000    -0.6202     
O114     O      0.494550000000     0.428870000000     0.134120000000    -0.563032   
O115     O      0.632890000000     0.502610000000     0.072240000000    -0.556396   
O116     O      0.632610000000     0.496790000000     0.930040000000    -0.560538   
O117     O      0.570440000000     0.500610000000     0.134710000000    -0.55931    
O118     O      0.570210000000     0.496170000000     0.867600000000    -0.606219   
O119     O      0.501640000000     0.633760000000     0.072450000000    -0.556804   
O120     O      0.493730000000     0.366650000000     0.071450000000    -0.603188   
O121     O      0.503390000000     0.368010000000     0.930820000000    -0.618633   
O122     O      0.495730000000     0.633820000000     0.930580000000    -0.560663   
O123     O      0.632780000000     0.571700000000     0.002550000000    -0.558163   
O124     O      0.632720000000     0.429740000000     0.998680000000    -0.561982   
O125     O      0.548030000000     0.452160000000     0.952570000000    -1.46033    
O126     O      0.547850000000     0.548750000000     0.049790000000    -1.36187    
O127     O      0.555750000000     0.450060000000     0.057410000000    -1.0543     
O128     O      0.555640000000     0.557020000000     0.951000000000    -1.04768    


