data_structure

_audit_creation_method RASPA-1.0
_audit_creation_date 2023-5-25
_audit_author_name 'Poobodin Mano'

_cell_length_a    32.5614
_cell_length_b    32.4745
_cell_length_c    32.6399
_cell_angle_alpha 90
_cell_angle_beta  90
_cell_angle_gamma 90
_cell_volume      34513.9

_symmetry_cell_setting          triclinic
_symmetry_space_group_name_Hall 'P 1'
_symmetry_space_group_name_H-M  'P 1'
_symmetry_Int_Tables_number     1

_symmetry_equiv_pos_as_xyz 'x,y,z'

loop_
_atom_site_label
_atom_site_type_symbol
_atom_site_fract_x
_atom_site_fract_y
_atom_site_fract_z
_atom_site_charge
C1       C      0.992840000000     0.095180000000     0.096040000000     0.503281   
C2       C      0.017930000000     0.897770000000     0.092960000000     0.50109    
C3       C      0.902900000000     0.998150000000     0.099670000000     0.500534   
C4       C      0.099020000000     0.000800000000     0.092840000000     0.50966    
C5       C      0.996490000000     0.899540000000     0.899240000000     0.494893   
C6       C      0.995730000000     0.097580000000     0.899520000000     0.495765   
C7       C      0.905880000000     0.893310000000     0.999170000000     0.490384   
C8       C      0.103070000000     0.906920000000     0.006930000000     0.5099     
C9       C      0.090270000000     0.102170000000     0.993040000000     0.502952   
C10      C      0.894220000000     0.090030000000     0.008800000000     0.505194   
C11      C      0.897530000000     0.992870000000     0.902350000000     0.496673   
C12      C      0.094220000000     0.006720000000     0.896700000000     0.507196   
C13      C      0.001230000000     0.402890000000     0.395490000000     0.50689    
C14      C      0.992000000000     0.600180000000     0.397570000000     0.50426    
C15      C      0.897340000000     0.488270000000     0.397690000000     0.504202   
C16      C      0.092250000000     0.513040000000     0.394460000000     0.504657   
C17      C      0.990640000000     0.596180000000     0.594570000000     0.493407   
C18      C      0.012640000000     0.399180000000     0.591170000000     0.498389   
C19      C      0.891260000000     0.590070000000     0.498560000000     0.498667   
C20      C      0.087910000000     0.606300000000     0.488910000000     0.503778   
C21      C      0.103130000000     0.410050000000     0.493370000000     0.505744   
C22      C      0.907300000000     0.393240000000     0.485610000000     0.506966   
C23      C      0.900880000000     0.490700000000     0.594980000000     0.492292   
C24      C      0.097800000000     0.504290000000     0.590360000000     0.510461   
C25      C      0.596620000000     0.983970000000     0.401380000000     0.50085    
C26      C      0.401520000000     0.006580000000     0.397840000000     0.504031   
C27      C      0.494710000000     0.897350000000     0.404460000000     0.509587   
C28      C      0.504490000000     0.093280000000     0.394810000000     0.503469   
C29      C      0.398990000000     0.012650000000     0.594760000000     0.495983   
C30      C      0.596320000000     0.004330000000     0.596600000000     0.50764    
C31      C      0.392670000000     0.909590000000     0.505990000000     0.49113    
C32      C      0.407520000000     0.106410000000     0.487780000000     0.50424    
C33      C      0.603200000000     0.091490000000     0.499450000000     0.504904   
C34      C      0.589580000000     0.895020000000     0.500110000000     0.508339   
C35      C      0.490530000000     0.907070000000     0.601070000000     0.495662   
C36      C      0.513160000000     0.103670000000     0.590680000000     0.506719   
C37      C      0.393240000000     0.406620000000     0.982400000000     0.503121   
C38      C      0.588920000000     0.391830000000     0.996580000000     0.50225    
C39      C      0.486050000000     0.404230000000     0.892890000000     0.505435   
C40      C      0.491120000000     0.393790000000     0.088480000000     0.501855   
C41      C      0.602120000000     0.589210000000     0.997410000000     0.496156   
C42      C      0.404920000000     0.601820000000     0.008500000000     0.502417   
C43      C      0.597830000000     0.500680000000     0.899980000000     0.491772   
C44      C      0.592670000000     0.477420000000     0.096010000000     0.501978   
C45      C      0.397260000000     0.499940000000     0.092410000000     0.50039    
C46      C      0.400850000000     0.508020000000     0.896800000000     0.510654   
C47      C      0.504470000000     0.601560000000     0.904130000000     0.496363   
C48      C      0.496240000000     0.590050000000     0.100370000000     0.506058   
C49      C      0.499330000000     0.193220000000     0.338900000000    -0.0365634  
C50      C      0.498440000000     0.288600000000     0.134190000000    -0.03615    
C51      C      0.481510000000     0.372790000000     0.160350000000     0.00903861 
C52      C      0.482110000000     0.319660000000     0.102870000000     0.0081847  
C53      C      0.458180000000     0.248550000000     0.225150000000    -0.0546535  
C54      C      0.538460000000     0.226420000000     0.246180000000    -0.0543122  
C55      C      0.491300000000     0.267190000000     0.205000000000     0.0606435  
C56      C      0.498220000000     0.339300000000     0.188580000000    -0.0361494  
C57      C      0.505340000000     0.208120000000     0.266630000000     0.060777   
C58      C      0.497330000000     0.137610000000     0.289500000000    -0.0461542  
C59      C      0.465000000000     0.219230000000     0.255720000000    -0.0568188  
C60      C      0.513560000000     0.106090000000     0.320700000000     0.049584   
C61      C      0.515770000000     0.165070000000     0.372680000000     0.00971452 
C62      C      0.531640000000     0.255760000000     0.215620000000    -0.0567189  
C63      C      0.514890000000     0.800340000000     0.348610000000    -0.0370446  
C64      C      0.473510000000     0.637840000000     0.202950000000    -0.0363174  
C65      C      0.511160000000     0.659610000000     0.124680000000     0.0109655  
C66      C      0.464650000000     0.611050000000     0.165220000000     0.00807832 
C67      C      0.489240000000     0.752220000000     0.214010000000    -0.0533288  
C68      C      0.481740000000     0.730010000000     0.296070000000    -0.0532781  
C69      C      0.486580000000     0.710240000000     0.224070000000     0.0597067  
C70      C      0.521570000000     0.679880000000     0.165380000000    -0.0369015  
C71      C      0.485560000000     0.771930000000     0.286010000000     0.0599182  
C72      C      0.475850000000     0.845420000000     0.304280000000    -0.0454396  
C73      C      0.490500000000     0.782440000000     0.244300000000    -0.0544766  
C74      C      0.464110000000     0.873920000000     0.339960000000     0.0460904  
C75      C      0.502500000000     0.824260000000     0.387020000000     0.0109781  
C76      C      0.483660000000     0.699510000000     0.265930000000    -0.0546929  
C77      C      0.482480000000     0.805640000000     0.656310000000    -0.0363532  
C78      C      0.510400000000     0.707620000000     0.857990000000    -0.0359337  
C79      C      0.496140000000     0.622630000000     0.832450000000     0.00877996 
C80      C      0.498690000000     0.675820000000     0.890550000000     0.00831199 
C81      C      0.458180000000     0.746210000000     0.773020000000    -0.0543315  
C82      C      0.534130000000     0.772960000000     0.743240000000    -0.0542002  
C83      C      0.494400000000     0.729050000000     0.788720000000     0.0609466  
C84      C      0.508130000000     0.657490000000     0.803490000000    -0.0359733  
C85      C      0.497920000000     0.789670000000     0.727150000000     0.0612503  
C86      C      0.484840000000     0.860290000000     0.706330000000    -0.0451333  
C87      C      0.459780000000     0.776370000000     0.742510000000    -0.05682    
C88      C      0.499150000000     0.892420000000     0.674860000000     0.0450253  
C89      C      0.495220000000     0.834320000000     0.621370000000     0.00912637 
C90      C      0.532550000000     0.742900000000     0.773800000000    -0.0566703  
C91      C      0.492860000000     0.304200000000     0.839200000000    -0.0370987  
C92      C      0.511450000000     0.207750000000     0.635990000000    -0.0368258  
C93      C      0.527790000000     0.123620000000     0.662370000000     0.0082337  
C94      C      0.529570000000     0.176650000000     0.605700000000     0.00954374 
C95      C      0.543830000000     0.249120000000     0.729110000000    -0.0545154  
C96      C      0.461540000000     0.268210000000     0.744610000000    -0.054307   
C97      C      0.512870000000     0.228900000000     0.707130000000     0.0606615  
C98      C      0.509510000000     0.156550000000     0.690370000000    -0.0359809  
C99      C      0.492480000000     0.288130000000     0.766850000000     0.0610018  
C100     C      0.495700000000     0.359360000000     0.789070000000    -0.045719   
C101     C      0.533870000000     0.278550000000     0.758740000000    -0.0568701  
C102     C      0.475890000000     0.390320000000     0.818780000000     0.0478877  
C103     C      0.473190000000     0.332330000000     0.871270000000     0.0110718  
C104     C      0.471490000000     0.238820000000     0.714990000000    -0.0565847  
C105     C      0.808470000000     0.336960000000     0.488650000000    -0.0366449  
C106     C      0.708930000000     0.134600000000     0.492080000000    -0.036991   
C107     C      0.625850000000     0.163220000000     0.509590000000     0.00930472 
C108     C      0.677300000000     0.104250000000     0.509090000000     0.00899071 
C109     C      0.753180000000     0.223990000000     0.530520000000    -0.0545186  
C110     C      0.773130000000     0.245070000000     0.449860000000    -0.054549   
C111     C      0.732470000000     0.205010000000     0.498020000000     0.06067    
C112     C      0.659850000000     0.190720000000     0.492540000000    -0.0369779  
C113     C      0.793310000000     0.264610000000     0.482380000000     0.0609135  
C114     C      0.864120000000     0.287230000000     0.487900000000    -0.0465381  
C115     C      0.783410000000     0.253540000000     0.522910000000    -0.0568073  
C116     C      0.894970000000     0.319270000000     0.471670000000     0.048559   
C117     C      0.836050000000     0.371070000000     0.472020000000     0.0097285  
C118     C      0.742970000000     0.215450000000     0.457470000000    -0.0566437  
C119     C      0.834170000000     0.689640000000     0.505680000000    -0.0362411  
C120     C      0.632440000000     0.788340000000     0.495550000000    -0.0359931  
C121     C      0.661140000000     0.872570000000     0.508040000000     0.0107633  
C122     C      0.601790000000     0.820950000000     0.509660000000     0.00902809 
C123     C      0.720200000000     0.747250000000     0.540270000000    -0.0547094  
C124     C      0.743460000000     0.721080000000     0.462000000000    -0.0544688  
C125     C      0.702160000000     0.765210000000     0.505680000000     0.0613486  
C126     C      0.688490000000     0.837200000000     0.494010000000    -0.0366381  
C127     C      0.762120000000     0.703760000000     0.496550000000     0.0616581  
C128     C      0.785220000000     0.633690000000     0.507880000000    -0.045254   
C129     C      0.749970000000     0.716660000000     0.535880000000    -0.0569889  
C130     C      0.816670000000     0.602170000000     0.492200000000     0.045579   
C131     C      0.868580000000     0.661750000000     0.490400000000     0.009599   
C132     C      0.713630000000     0.751570000000     0.466380000000    -0.0568169  
C133     C      0.162080000000     0.311320000000     0.499380000000    -0.0366304  
C134     C      0.363280000000     0.212720000000     0.475330000000    -0.0366391  
C135     C      0.336080000000     0.129220000000     0.494700000000     0.00884225 
C136     C      0.395380000000     0.181060000000     0.488640000000     0.0102162  
C137     C      0.279330000000     0.255650000000     0.526010000000    -0.0542835  
C138     C      0.249040000000     0.278630000000     0.449190000000    -0.0543546  
C139     C      0.294510000000     0.236420000000     0.490710000000     0.0608399  
C140     C      0.307690000000     0.163930000000     0.480930000000    -0.0360253  
C141     C      0.233280000000     0.297250000000     0.484550000000     0.061327   
C142     C      0.210430000000     0.367610000000     0.495430000000    -0.0460033  
C143     C      0.248970000000     0.285890000000     0.523100000000    -0.0569272  
C144     C      0.177250000000     0.398490000000     0.481890000000     0.0488578  
C145     C      0.126170000000     0.338340000000     0.486010000000     0.00995059 
C146     C      0.279450000000     0.248460000000     0.452090000000    -0.0566707  
C147     C      0.186290000000     0.663720000000     0.500640000000    -0.0367501  
C148     C      0.286850000000     0.866230000000     0.499340000000    -0.0358284  
C149     C      0.369450000000     0.838560000000     0.520210000000     0.00714153 
C150     C      0.318280000000     0.897420000000     0.515380000000     0.00718115 
C151     C      0.241380000000     0.778240000000     0.540740000000    -0.0541722  
C152     C      0.222870000000     0.754450000000     0.460530000000    -0.0539923  
C153     C      0.262830000000     0.796120000000     0.508020000000     0.0603911  
C154     C      0.335720000000     0.810150000000     0.503880000000    -0.035749   
C155     C      0.201870000000     0.736130000000     0.493260000000     0.060992   
C156     C      0.130740000000     0.713050000000     0.498110000000    -0.0453646  
C157     C      0.211130000000     0.748480000000     0.533570000000    -0.0567574  
C158     C      0.100470000000     0.681190000000     0.480230000000     0.0460227  
C159     C      0.159790000000     0.629570000000     0.482300000000     0.0101125  
C160     C      0.253080000000     0.784180000000     0.467690000000    -0.0563161  
C161     C      0.794510000000     0.468750000000     0.349090000000    -0.0360944  
C162     C      0.694110000000     0.474560000000     0.147250000000    -0.0359839  
C163     C      0.608500000000     0.458510000000     0.167800000000     0.00883666 
C164     C      0.664430000000     0.459980000000     0.113940000000     0.0075821  
C165     C      0.732780000000     0.432240000000     0.236080000000    -0.054244   
C166     C      0.752220000000     0.512240000000     0.261090000000    -0.0542374  
C167     C      0.712070000000     0.465720000000     0.218500000000     0.0602998  
C168     C      0.640550000000     0.472960000000     0.198990000000    -0.0364509  
C169     C      0.772900000000     0.478800000000     0.278650000000     0.0611136  
C170     C      0.845390000000     0.474620000000     0.295640000000    -0.0453341  
C171     C      0.763020000000     0.438590000000     0.265890000000    -0.0569774  
C172     C      0.877720000000     0.493110000000     0.324710000000     0.046282   
C173     C      0.823470000000     0.486420000000     0.381570000000     0.00851098 
C174     C      0.722120000000     0.505920000000     0.231230000000    -0.0563461  
C175     C      0.140060000000     0.505760000000     0.290900000000    -0.0370934  
C176     C      0.344520000000     0.507520000000     0.194030000000    -0.0364529  
C177     C      0.323450000000     0.494910000000     0.108060000000     0.00856538 
C178     C      0.377430000000     0.491280000000     0.164740000000     0.00882876 
C179     C      0.252920000000     0.467820000000     0.229540000000    -0.0544149  
C180     C      0.230840000000     0.547960000000     0.251810000000    -0.0543503  
C181     C      0.272520000000     0.501350000000     0.210900000000     0.0604396  
C182     C      0.293460000000     0.510920000000     0.140350000000    -0.036204   
C183     C      0.211190000000     0.514440000000     0.270380000000     0.0611891  
C184     C      0.193670000000     0.508560000000     0.342240000000    -0.0463496  
C185     C      0.222560000000     0.474170000000     0.259160000000    -0.0569     
C186     C      0.164530000000     0.526150000000     0.374840000000     0.0471549  
C187     C      0.107780000000     0.522270000000     0.320840000000     0.00937207 
C188     C      0.261320000000     0.541620000000     0.222360000000    -0.0564978  
C189     C      0.200450000000     0.526320000000     0.638100000000    -0.0371092  
C190     C      0.344700000000     0.492970000000     0.800400000000    -0.0365129  
C191     C      0.336020000000     0.539870000000     0.875460000000     0.010013   
C192     C      0.383020000000     0.505510000000     0.823940000000     0.0105712  
C193     C      0.292070000000     0.523720000000     0.731360000000    -0.0530213  
C194     C      0.209510000000     0.521850000000     0.753160000000    -0.0534003  
C195     C      0.281680000000     0.522630000000     0.773190000000     0.0596468  
C196     C      0.300220000000     0.530330000000     0.846570000000    -0.0368091  
C197     C      0.219990000000     0.520220000000     0.711430000000     0.0604987  
C198     C      0.158310000000     0.486940000000     0.684660000000    -0.0461696  
C199     C      0.262090000000     0.520720000000     0.701020000000    -0.0547288  
C200     C      0.118490000000     0.498110000000     0.662460000000     0.0480331  
C201     C      0.163820000000     0.534880000000     0.609870000000     0.0113992  
C202     C      0.239550000000     0.521260000000     0.783530000000    -0.0540086  
C203     C      0.799200000000     0.496520000000     0.647540000000    -0.0360564  
C204     C      0.701290000000     0.492820000000     0.851070000000    -0.035645   
C205     C      0.617290000000     0.513680000000     0.828040000000     0.00728927 
C206     C      0.671570000000     0.508560000000     0.883900000000     0.0070663  
C207     C      0.741400000000     0.535940000000     0.761590000000    -0.0544683  
C208     C      0.761560000000     0.455740000000     0.737780000000    -0.0541642  
C209     C      0.721550000000     0.502560000000     0.780250000000     0.0604622  
C210     C      0.649540000000     0.497460000000     0.798000000000    -0.0355875  
C211     C      0.781440000000     0.489120000000     0.719160000000     0.0605238  
C212     C      0.852800000000     0.496640000000     0.698930000000    -0.0451924  
C213     C      0.771050000000     0.529430000000     0.731260000000    -0.0566395  
C214     C      0.885210000000     0.480590000000     0.668520000000     0.0457762  
C215     C      0.828300000000     0.480230000000     0.614460000000     0.00803138 
C216     C      0.731810000000     0.462250000000     0.768000000000    -0.0566262  
C217     C      0.707850000000     0.633650000000     0.001810000000    -0.025362   
C218     C      0.805920000000     0.837020000000     0.993280000000    -0.0471702  
C219     C      0.892780000000     0.818930000000     0.005800000000     0.0177913  
C220     C      0.834190000000     0.871280000000     0.008480000000     0.0176647  
C221     C      0.773080000000     0.746020000000     0.035780000000    -0.0579428  
C222     C      0.749130000000     0.722190000000     0.956990000000    -0.0509746  
C223     C      0.791220000000     0.764740000000     0.001640000000     0.0666178  
C224     C      0.861280000000     0.787450000000     0.990830000000    -0.0473476  
C225     C      0.730660000000     0.703800000000     0.991140000000     0.0552907  
C226     C      0.658430000000     0.689350000000     0.999700000000    -0.0484518  
C227     C      0.742990000000     0.715810000000     0.030720000000    -0.0504994  
C228     C      0.623790000000     0.660960000000     0.984880000000     0.0428841  
C229     C      0.676100000000     0.602130000000     0.987320000000    -6.48643e-05
C230     C      0.779180000000     0.752450000000     0.962050000000    -0.0628602  
C231     C      0.789050000000     0.133770000000     0.001540000000    -0.0334454  
C232     C      0.688340000000     0.335530000000     0.008040000000    -0.024409   
C233     C      0.602530000000     0.317510000000     0.989510000000    -0.000494387
C234     C      0.661050000000     0.369970000000     0.991610000000    -0.0014449  
C235     C      0.725500000000     0.246520000000     0.965980000000    -0.0509308  
C236     C      0.743390000000     0.220320000000     0.045610000000    -0.0579203  
C237     C      0.704140000000     0.263620000000     0.999120000000     0.0550785  
C238     C      0.633210000000     0.285720000000     0.005700000000    -0.024921   
C239     C      0.764990000000     0.203490000000     0.012500000000     0.0673239  
C240     C      0.837970000000     0.189490000000     0.009720000000    -0.0415198  
C241     C      0.755760000000     0.216730000000     0.972480000000    -0.0634108  
C242     C      0.871180000000     0.160500000000     0.026680000000     0.0464731  
C243     C      0.819780000000     0.101950000000     0.017530000000     0.0131509  
C244     C      0.713230000000     0.250210000000     0.039130000000    -0.050377   
C245     C      0.199270000000     0.848310000000     0.999880000000    -0.0454074  
C246     C      0.304010000000     0.657570000000     0.011200000000    -0.0279714  
C247     C      0.390500000000     0.673570000000     0.028410000000     0.00800767 
C248     C      0.336890000000     0.630000000000     0.991740000000     0.0010671  
C249     C      0.300820000000     0.772090000000     0.028350000000    -0.0534363  
C250     C      0.218880000000     0.751960000000     0.043410000000    -0.0538967  
C251     C      0.289730000000     0.730310000000     0.030160000000     0.0597327  
C252     C      0.354750000000     0.696870000000     0.048350000000    -0.0356156  
C253     C      0.229950000000     0.793970000000     0.040130000000     0.0588625  
C254     C      0.157880000000     0.816450000000     0.052940000000    -0.0430892  
C255     C      0.271860000000     0.803210000000     0.034840000000    -0.0528419  
C256     C      0.128190000000     0.853730000000     0.053680000000     0.0284808  
C257     C      0.175710000000     0.888660000000     0.003090000000     0.0214723  
C258     C      0.248400000000     0.720790000000     0.039540000000    -0.0543662  
C259     C      0.134600000000     0.208020000000     0.981200000000    -0.0356346  
C260     C      0.337570000000     0.306970000000     0.980770000000    -0.04117    
C261     C      0.319490000000     0.394100000000     0.969190000000     0.0089234  
C262     C      0.371260000000     0.335840000000     0.965370000000     0.00967174 
C263     C      0.245490000000     0.273150000000     0.941880000000    -0.0539449  
C264     C      0.224500000000     0.250310000000     0.021780000000    -0.0511118  
C265     C      0.265230000000     0.292050000000     0.975080000000     0.0567616  
C266     C      0.287940000000     0.362600000000     0.984260000000    -0.0409434  
C267     C      0.205070000000     0.231140000000     0.988610000000     0.0574517  
C268     C      0.190000000000     0.158450000000     0.981900000000    -0.0451579  
C269     C      0.215650000000     0.242890000000     0.948450000000    -0.0564937  
C270     C      0.162590000000     0.124220000000     0.999460000000     0.0449227  
C271     C      0.103770000000     0.176740000000     0.998160000000     0.00553324 
C272     C      0.254360000000     0.280490000000     0.015230000000    -0.0530296  
C273     C      0.793100000000     0.986210000000     0.853490000000    -0.0373934  
C274     C      0.699270000000     0.009580000000     0.649050000000    -0.0298929  
C275     C      0.612190000000     0.004210000000     0.669960000000     0.0109502  
C276     C      0.668970000000     0.997140000000     0.615460000000     0.00365312 
C277     C      0.729390000000     0.961960000000     0.738530000000    -0.0524099  
C278     C      0.759340000000     0.038060000000     0.765200000000    -0.0562933  
C279     C      0.714760000000     0.998280000000     0.720570000000     0.0578888  
C280     C      0.645960000000     0.016740000000     0.699750000000    -0.0349155  
C281     C      0.773820000000     0.001770000000     0.783290000000     0.0651761  
C282     C      0.844760000000     0.988560000000     0.800460000000    -0.049261   
C283     C      0.758870000000     0.963540000000     0.769570000000    -0.0604869  
C284     C      0.878450000000     0.002820000000     0.829990000000     0.0510963  
C285     C      0.823790000000     0.998650000000     0.886820000000     0.00731575 
C286     C      0.730110000000     0.036480000000     0.733980000000    -0.0531955  
C287     C      0.195620000000     0.020350000000     0.844180000000    -0.0374227  
C288     C      0.295570000000     0.010570000000     0.643270000000    -0.0331957  
C289     C      0.380590000000     0.026010000000     0.666860000000     0.00695285 
C290     C      0.326110000000     0.025230000000     0.610890000000     0.00719044 
C291     C      0.255450000000     0.054530000000     0.730700000000    -0.054907   
C292     C      0.233960000000     0.975180000000     0.756160000000    -0.0562429  
C293     C      0.275540000000     0.020420000000     0.713730000000     0.0631132  
C294     C      0.347320000000     0.011530000000     0.696600000000    -0.0331586  
C295     C      0.214150000000     0.009290000000     0.773390000000     0.0632109  
C296     C      0.142510000000     0.016190000000     0.792650000000    -0.0426016  
C297     C      0.224900000000     0.049150000000     0.760290000000    -0.0571212  
C298     C      0.110590000000     0.999500000000     0.823150000000     0.0404872  
C299     C      0.167250000000     0.004300000000     0.877810000000     0.0138778  
C300     C      0.264380000000     0.980540000000     0.726490000000    -0.0586954  
C301     C      0.202970000000     0.993760000000     0.141630000000    -0.0429592  
C302     C      0.299510000000     0.014720000000     0.344690000000    -0.0347652  
C303     C      0.385450000000     0.998740000000     0.324810000000     0.00368718 
C304     C      0.328600000000     0.001760000000     0.379110000000     0.0101656  
C305     C      0.265010000000     0.965110000000     0.256980000000    -0.0569329  
C306     C      0.240620000000     0.042620000000     0.228700000000    -0.0540786  
C307     C      0.282520000000     0.000610000000     0.273980000000     0.0648153  
C308     C      0.353130000000     0.012110000000     0.293660000000    -0.0296825  
C309     C      0.222920000000     0.007150000000     0.211900000000     0.0631236  
C310     C      0.151460000000     0.996140000000     0.194840000000    -0.0523952  
C311     C      0.235400000000     0.968210000000     0.226150000000    -0.0581272  
C312     C      0.117810000000     0.010770000000     0.165330000000     0.0542045  
C313     C      0.172650000000     0.007850000000     0.108700000000     0.0150076  
C314     C      0.270230000000     0.039540000000     0.259480000000    -0.0575648  
C315     C      0.699870000000     0.987630000000     0.352760000000    -0.0394983  
C316     C      0.800850000000     0.990820000000     0.151200000000    -0.0425068  
C317     C      0.886030000000     0.008040000000     0.172940000000     0.0144138  
C318     C      0.830090000000     0.007800000000     0.118600000000     0.0132138  
C319     C      0.761650000000     0.029800000000     0.241780000000    -0.0518649  
C320     C      0.741080000000     0.948910000000     0.262750000000    -0.0540922  
C321     C      0.782140000000     0.997040000000     0.222690000000     0.0564819  
C322     C      0.853980000000     0.991260000000     0.203100000000    -0.0430631  
C323     C      0.720460000000     0.981670000000     0.281710000000     0.0582347  
C324     C      0.648190000000     0.987770000000     0.299330000000    -0.0486404  
C325     C      0.731120000000     0.022340000000     0.271050000000    -0.0546644  
C326     C      0.614760000000     0.971440000000     0.328620000000     0.0465209  
C327     C      0.669580000000     0.970770000000     0.384500000000     0.00936758 
C328     C      0.771650000000     0.956380000000     0.233510000000    -0.0556716  
C329     C      0.007280000000     0.295940000000     0.641280000000    -0.0354278  
C330     C      0.007140000000     0.200520000000     0.847890000000    -0.0324642  
C331     C      0.990240000000     0.115060000000     0.826150000000     0.00338528 
C332     C      0.990360000000     0.171210000000     0.880840000000     0.00471749 
C333     C      0.967540000000     0.237360000000     0.755640000000    -0.0552334  
C334     C      0.047800000000     0.258110000000     0.733360000000    -0.0540097  
C335     C      0.000580000000     0.218510000000     0.775860000000     0.062069   
C336     C      0.007610000000     0.147080000000     0.796460000000    -0.0316048  
C337     C      0.014760000000     0.276890000000     0.713090000000     0.0614339  
C338     C      0.009290000000     0.348820000000     0.693560000000    -0.0441918  
C339     C      0.974420000000     0.266350000000     0.724600000000    -0.0573198  
C340     C      0.026790000000     0.381020000000     0.663680000000     0.0466439  
C341     C      0.023740000000     0.325600000000     0.608420000000     0.00896406 
C342     C      0.040930000000     0.229180000000     0.764440000000    -0.0568483  
C343     C      0.001450000000     0.796670000000     0.848270000000    -0.033307   
C344     C      0.979310000000     0.698310000000     0.647090000000    -0.0355256  
C345     C      0.999690000000     0.613170000000     0.667390000000     0.00596348 
C346     C      0.993180000000     0.669530000000     0.612780000000     0.00699265 
C347     C      0.028910000000     0.736880000000     0.732410000000    -0.0533328  
C348     C      0.951400000000     0.757260000000     0.763240000000    -0.0542924  
C349     C      0.994020000000     0.716830000000     0.717200000000     0.0601854  
C350     C      0.985420000000     0.645220000000     0.698530000000    -0.0349158  
C351     C      0.986290000000     0.777300000000     0.778450000000     0.0601668  
C352     C      0.994310000000     0.849240000000     0.796180000000    -0.0465431  
C353     C      0.025220000000     0.766920000000     0.762790000000    -0.0557466  
C354     C      0.980550000000     0.881880000000     0.827370000000     0.0460758  
C355     C      0.988240000000     0.826060000000     0.882360000000     0.0067174  
C356     C      0.955090000000     0.727240000000     0.732830000000    -0.0567188  
C357     C      0.004770000000     0.800820000000     0.147570000000    -0.0361254  
C358     C      0.007210000000     0.702830000000     0.349690000000    -0.0337491  
C359     C      0.982040000000     0.620220000000     0.325180000000     0.00675925 
C360     C      0.987040000000     0.674300000000     0.381140000000     0.00568384 
C361     C      0.972930000000     0.752130000000     0.264910000000    -0.0557569  
C362     C      0.052410000000     0.755680000000     0.232740000000    -0.0540991  
C363     C      0.002750000000     0.724410000000     0.278970000000     0.0628281  
C364     C      0.001690000000     0.651450000000     0.296070000000    -0.0327971  
C365     C      0.022100000000     0.782110000000     0.217360000000     0.0614615  
C366     C      0.034580000000     0.852150000000     0.193470000000    -0.0411694  
C367     C      0.982510000000     0.781100000000     0.234670000000    -0.057233   
C368     C      0.052990000000     0.876150000000     0.157180000000     0.0267366  
C369     C      0.020880000000     0.823660000000     0.109940000000     0.010045   
C370     C      0.043090000000     0.727360000000     0.263630000000    -0.0570325  
C371     C      0.991540000000     0.352230000000     0.293140000000    -0.0387594  
C372     C      0.000510000000     0.145970000000     0.198690000000    -0.0333781  
C373     C      0.986220000000     0.168560000000     0.113340000000     0.0061735  
C374     C      0.984830000000     0.113050000000     0.169020000000     0.00624677 
C375     C      0.958380000000     0.236700000000     0.234720000000    -0.0534342  
C376     C      0.037640000000     0.261930000000     0.256090000000    -0.0551976  
C377     C      0.992390000000     0.217830000000     0.216390000000     0.0598708  
C378     C      0.002380000000     0.198040000000     0.145820000000    -0.0332365  
C379     C      0.003630000000     0.281090000000     0.274100000000     0.063168   
C380     C      0.998230000000     0.299780000000     0.345420000000    -0.0491099  
C381     C      0.963810000000     0.267990000000     0.263540000000    -0.0584976  
C382     C      0.014750000000     0.330440000000     0.377090000000     0.0510868  
C383     C      0.006790000000     0.386090000000     0.321980000000     0.012667   
C384     C      0.032220000000     0.230430000000     0.227510000000    -0.0549986  
Eu1      Eu     0.000150000000     0.996490000000     0.070490000000     3.50544    
Eu2      Eu     0.002700000000     0.924630000000     0.997380000000     3.05169    
Eu3      Eu     0.993570000000     0.070670000000     0.997480000000     3.44562    
Eu4      Eu     0.925490000000     0.993440000000     0.000230000000     3.07237    
Eu5      Eu     0.071060000000     0.001740000000     0.994820000000     3.55162    
Eu6      Eu     0.996550000000     0.998250000000     0.924780000000     3.00185    
Eu7      Eu     0.994960000000     0.501390000000     0.421960000000     3.49528    
Eu8      Eu     0.991400000000     0.572770000000     0.495660000000     3.0413     
Eu9      Eu     0.002620000000     0.426860000000     0.494060000000     3.47411    
Eu10     Eu     0.924220000000     0.493550000000     0.495900000000     3.05211    
Eu11     Eu     0.069630000000     0.506410000000     0.493550000000     3.52313    
Eu12     Eu     0.998760000000     0.498020000000     0.567520000000     3.01363    
Eu13     Eu     0.498180000000     0.996320000000     0.425540000000     3.47903    
Eu14     Eu     0.425300000000     0.006040000000     0.496980000000     3.02852    
Eu15     Eu     0.570780000000     0.994750000000     0.499200000000     3.50195    
Eu16     Eu     0.493050000000     0.927470000000     0.501600000000     3.04038    
Eu17     Eu     0.503080000000     0.073420000000     0.494610000000     3.49539    
Eu18     Eu     0.497730000000     0.004490000000     0.570780000000     3.09509    
Eu19     Eu     0.493070000000     0.424710000000     0.991450000000     3.47941    
Eu20     Eu     0.570290000000     0.492340000000     0.997620000000     3.02015    
Eu21     Eu     0.424750000000     0.503120000000     0.994620000000     3.48539    
Eu22     Eu     0.498710000000     0.501370000000     0.923540000000     3.06995    
Eu23     Eu     0.496200000000     0.493690000000     0.068900000000     3.48561    
Eu24     Eu     0.502200000000     0.570560000000     0.001120000000     3.09111    
H1       H      0.964690000000     0.956390000000     0.067190000000    -0.171122   
H2       H      0.056030000000     0.060610000000     0.055600000000     0.413873   
H3       H      0.954980000000     0.064070000000     0.961180000000    -0.162738   
H4       H      0.067470000000     0.963180000000     0.958270000000    -0.189236   
H5       H      0.954720000000     0.535600000000     0.428170000000    -0.176162   
H6       H      0.060280000000     0.446330000000     0.432950000000     0.413961   
H7       H      0.965200000000     0.427550000000     0.532010000000    -0.16993    
H8       H      0.062170000000     0.542710000000     0.531320000000    -0.186868   
H9       H      0.458350000000     0.962240000000     0.432270000000    -0.187179   
H10      H      0.563000000000     0.052520000000     0.436290000000     0.411939   
H11      H      0.562910000000     0.960000000000     0.538440000000    -0.180038   
H12      H      0.465440000000     0.073340000000     0.532050000000    -0.177204   
H13      H      0.531360000000     0.429190000000     0.955040000000    -0.180566   
H14      H      0.432330000000     0.438130000000     0.050440000000     0.410243   
H15      H      0.433100000000     0.542800000000     0.960350000000    -0.170488   
H16      H      0.536600000000     0.528440000000     0.067180000000    -0.18137    
H17      H      0.557770000000     0.269880000000     0.200690000000     0.0399784  
H18      H      0.510670000000     0.225020000000     0.344810000000     0.0340995  
H19      H      0.505890000000     0.128130000000     0.257780000000     0.0394535  
H20      H      0.447980000000     0.376180000000     0.165920000000     0.025954   
H21      H      0.549380000000     0.170240000000     0.375860000000     0.0276148  
H22      H      0.487830000000     0.257310000000     0.125120000000     0.0343675  
H23      H      0.487690000000     0.345990000000     0.220350000000     0.033976   
H24      H      0.497610000000     0.313790000000     0.073070000000     0.0352356  
H25      H      0.495990000000     0.077150000000     0.315740000000     0.029709   
H26      H      0.569640000000     0.218150000000     0.254290000000     0.043999   
H27      H      0.501180000000     0.174380000000     0.402050000000     0.0342821  
H28      H      0.427010000000     0.257200000000     0.217420000000     0.0429905  
H29      H      0.465150000000     0.193750000000     0.340330000000     0.0372665  
H30      H      0.496380000000     0.402360000000     0.169010000000     0.0353647  
H31      H      0.532640000000     0.288840000000     0.133470000000     0.0375951  
H32      H      0.532420000000     0.340280000000     0.188260000000     0.0377303  
H33      H      0.438880000000     0.205560000000     0.271060000000     0.0396442  
H34      H      0.463130000000     0.137690000000     0.290900000000     0.0394321  
H35      H      0.448710000000     0.314140000000     0.098370000000     0.0265515  
H36      H      0.481520000000     0.667860000000     0.275920000000     0.0388064  
H37      H      0.521180000000     0.768080000000     0.358060000000     0.0331009  
H38      H      0.451640000000     0.847150000000     0.280180000000     0.0384146  
H39      H      0.488440000000     0.679010000000     0.108060000000     0.0344916  
H40      H      0.476270000000     0.808310000000     0.402010000000     0.0355204  
H41      H      0.445240000000     0.637920000000     0.222110000000     0.033727   
H42      H      0.532870000000     0.711430000000     0.158600000000     0.0328207  
H43      H      0.464600000000     0.578160000000     0.174700000000     0.0366132  
H44      H      0.467360000000     0.906140000000     0.328900000000     0.0299066  
H45      H      0.477040000000     0.720770000000     0.327600000000     0.041644   
H46      H      0.528690000000     0.824340000000     0.408950000000     0.0326837  
H47      H      0.490320000000     0.761830000000     0.182260000000     0.0412618  
H48      H      0.543860000000     0.813190000000     0.335710000000     0.0405043  
H49      H      0.539520000000     0.658000000000     0.105670000000     0.0322929  
H50      H      0.498880000000     0.623540000000     0.220910000000     0.0358164  
H51      H      0.546990000000     0.662960000000     0.180830000000     0.0391758  
H52      H      0.493930000000     0.813940000000     0.234240000000     0.0391465  
H53      H      0.504910000000     0.857150000000     0.290500000000     0.0401768  
H54      H      0.433120000000     0.618110000000     0.154160000000     0.0318673  
H55      H      0.560960000000     0.730120000000     0.785370000000     0.0403477  
H56      H      0.493190000000     0.773950000000     0.648830000000     0.0348306  
H57      H      0.495340000000     0.869050000000     0.737680000000     0.0383025  
H58      H      0.462940000000     0.615710000000     0.828270000000     0.0345793  
H59      H      0.527690000000     0.827680000000     0.613090000000     0.0350865  
H60      H      0.499320000000     0.738360000000     0.868280000000     0.0347054  
H61      H      0.495440000000     0.650420000000     0.772590000000     0.0349287  
H62      H      0.517680000000     0.681480000000     0.918320000000     0.035511   
H63      H      0.482110000000     0.921430000000     0.681140000000     0.0277935  
H64      H      0.563660000000     0.783030000000     0.731720000000     0.0449129  
H65      H      0.476130000000     0.826740000000     0.594120000000     0.0348289  
H66      H      0.428640000000     0.735790000000     0.784190000000     0.044283   
H67      H      0.448340000000     0.804910000000     0.658570000000     0.0362061  
H68      H      0.513530000000     0.594600000000     0.823310000000     0.0353072  
H69      H      0.544490000000     0.709050000000     0.855320000000     0.0376551  
H70      H      0.542220000000     0.658820000000     0.800890000000     0.0372095  
H71      H      0.431410000000     0.788970000000     0.730620000000     0.0400481  
H72      H      0.450630000000     0.859910000000     0.707160000000     0.038314   
H73      H      0.466080000000     0.680760000000     0.899420000000     0.0339932  
H74      H      0.446960000000     0.223560000000     0.698570000000     0.0403196  
H75      H      0.482210000000     0.272120000000     0.844870000000     0.0345222  
H76      H      0.488610000000     0.368050000000     0.756770000000     0.0388923  
H77      H      0.561430000000     0.121900000000     0.668040000000     0.0320879  
H78      H      0.439540000000     0.326540000000     0.871730000000     0.0337207  
H79      H      0.522640000000     0.239010000000     0.627580000000     0.0344783  
H80      H      0.519100000000     0.149790000000     0.722410000000     0.0343809  
H81      H      0.517070000000     0.183450000000     0.574740000000     0.0347647  
H82      H      0.491090000000     0.420530000000     0.813710000000     0.0287929  
H83      H      0.429590000000     0.275300000000     0.750560000000     0.0446123  
H84      H      0.485460000000     0.323430000000     0.901800000000     0.0346854  
H85      H      0.575770000000     0.241720000000     0.723480000000     0.0433959  
H86      H      0.526860000000     0.304920000000     0.842920000000     0.0371693  
H87      H      0.514340000000     0.093410000000     0.671030000000     0.0362437  
H88      H      0.477360000000     0.207490000000     0.633160000000     0.0377583  
H89      H      0.475370000000     0.154840000000     0.688820000000     0.038048   
H90      H      0.558330000000     0.293520000000     0.775520000000     0.0399653  
H91      H      0.529690000000     0.361020000000     0.792600000000     0.0392548  
H92      H      0.563420000000     0.181080000000     0.604460000000     0.0319016  
H93      H      0.727420000000     0.201210000000     0.431810000000     0.0391859  
H94      H      0.776460000000     0.343100000000     0.478320000000     0.0345591  
H95      H      0.873350000000     0.255690000000     0.478020000000     0.0388232  
H96      H      0.623100000000     0.168790000000     0.543100000000     0.0332044  
H97      H      0.830610000000     0.374150000000     0.438520000000     0.0337585  
H98      H      0.739980000000     0.124670000000     0.502390000000     0.0343287  
H99      H      0.654190000000     0.222810000000     0.503130000000     0.034326   
H100     H      0.682510000000     0.073860000000     0.494290000000     0.0318998  
H101     H      0.924550000000     0.313740000000     0.487770000000     0.028083   
H102     H      0.780400000000     0.253340000000     0.418540000000     0.0439773  
H103     H      0.826490000000     0.400490000000     0.486550000000     0.0358442  
H104     H      0.745400000000     0.216260000000     0.561850000000     0.0436189  
H105     H      0.808960000000     0.337880000000     0.522770000000     0.0376244  
H106     H      0.596370000000     0.172700000000     0.495230000000     0.0331617  
H107     H      0.708230000000     0.133550000000     0.457980000000     0.0348281  
H108     H      0.658400000000     0.190420000000     0.458440000000     0.0351514  
H109     H      0.798500000000     0.268210000000     0.548590000000     0.0400199  
H110     H      0.865190000000     0.287580000000     0.522010000000     0.0389154  
H111     H      0.682720000000     0.100370000000     0.542510000000     0.0337368  
H112     H      0.700120000000     0.765000000000     0.439200000000     0.0402253  
H113     H      0.840000000000     0.721360000000     0.494080000000     0.0346821  
H114     H      0.753460000000     0.623960000000     0.499480000000     0.03852    
H115     H      0.666960000000     0.878530000000     0.541100000000     0.0315731  
H116     H      0.873130000000     0.667260000000     0.457080000000     0.0350204  
H117     H      0.622180000000     0.757880000000     0.507420000000     0.0344301  
H118     H      0.720380000000     0.843430000000     0.504670000000     0.0345339  
H119     H      0.572200000000     0.815410000000     0.493530000000     0.035492   
H120     H      0.812200000000     0.573390000000     0.510140000000     0.0284941  
H121     H      0.752630000000     0.711370000000     0.431610000000     0.0450072  
H122     H      0.897380000000     0.671060000000     0.506200000000     0.0352445  
H123     H      0.711600000000     0.757520000000     0.570640000000     0.0439256  
H124     H      0.834770000000     0.690650000000     0.539800000000     0.036421   
H125     H      0.670370000000     0.900690000000     0.490880000000     0.0354371  
H126     H      0.632430000000     0.786920000000     0.461440000000     0.0369174  
H127     H      0.688760000000     0.836090000000     0.459890000000     0.0376601  
H128     H      0.764030000000     0.703660000000     0.563000000000     0.0397206  
H129     H      0.786550000000     0.634540000000     0.541980000000     0.0382738  
H130     H      0.596090000000     0.816930000000     0.543030000000     0.0332312  
H131     H      0.290630000000     0.234020000000     0.424370000000     0.0397165  
H132     H      0.155620000000     0.279130000000     0.489530000000     0.0353225  
H133     H      0.241170000000     0.377350000000     0.483860000000     0.0391182  
H134     H      0.331850000000     0.124200000000     0.528150000000     0.0332562  
H135     H      0.119310000000     0.331660000000     0.453370000000     0.0318403  
H136     H      0.374270000000     0.243860000000     0.484450000000     0.0342799  
H137     H      0.276680000000     0.158280000000     0.494170000000     0.0347047  
H138     H      0.423060000000     0.184900000000     0.469010000000     0.0344029  
H139     H      0.182830000000     0.427580000000     0.498980000000     0.0289772  
H140     H      0.237150000000     0.287080000000     0.419360000000     0.0444895  
H141     H      0.098750000000     0.329320000000     0.504240000000     0.0362368  
H142     H      0.290620000000     0.246610000000     0.555900000000     0.0438868  
H143     H      0.164400000000     0.311640000000     0.533430000000     0.0377943  
H144     H      0.326350000000     0.100460000000     0.478930000000     0.0351683  
H145     H      0.360310000000     0.212170000000     0.441330000000     0.0364986  
H146     H      0.304840000000     0.163340000000     0.446910000000     0.0367172  
H147     H      0.237220000000     0.299810000000     0.550850000000     0.0403656  
H148     H      0.212330000000     0.367810000000     0.529520000000     0.0395239  
H149     H      0.404800000000     0.187890000000     0.520680000000     0.0318724  
H150     H      0.269200000000     0.797380000000     0.441840000000     0.040884   
H151     H      0.218840000000     0.657790000000     0.491980000000     0.0351538  
H152     H      0.121810000000     0.744780000000     0.488540000000     0.038935   
H153     H      0.371320000000     0.834900000000     0.554030000000     0.0325083  
H154     H      0.167450000000     0.627010000000     0.449330000000     0.0378223  
H155     H      0.255630000000     0.876790000000     0.508450000000     0.0344052  
H156     H      0.341080000000     0.778680000000     0.516300000000     0.0348356  
H157     H      0.313410000000     0.927020000000     0.498960000000     0.0355496  
H158     H      0.070450000000     0.685930000000     0.495750000000     0.02916    
H159     H      0.216190000000     0.745120000000     0.429380000000     0.0452051  
H160     H      0.168410000000     0.600050000000     0.497250000000     0.0354249  
H161     H      0.248580000000     0.787030000000     0.571930000000     0.0435754  
H162     H      0.184060000000     0.662760000000     0.534690000000     0.0370071  
H163     H      0.399250000000     0.828230000000     0.507140000000     0.0366695  
H164     H      0.288270000000     0.865520000000     0.465250000000     0.0380297  
H165     H      0.337970000000     0.808570000000     0.469860000000     0.0389463  
H166     H      0.195490000000     0.734650000000     0.559390000000     0.040334   
H167     H      0.128660000000     0.712170000000     0.532160000000     0.038949   
H168     H      0.312200000000     0.903030000000     0.548440000000     0.0323789  
H169     H      0.706850000000     0.532360000000     0.218010000000     0.0401205  
H170     H      0.762390000000     0.476280000000     0.358060000000     0.0349837  
H171     H      0.851180000000     0.484920000000     0.263540000000     0.0386459  
H172     H      0.604880000000     0.424580000000     0.170660000000     0.0325075  
H173     H      0.814160000000     0.518670000000     0.388000000000     0.0367316  
H174     H      0.725480000000     0.463510000000     0.139300000000     0.03462    
H175     H      0.631960000000     0.460620000000     0.229640000000     0.0343568  
H176     H      0.673130000000     0.475210000000     0.084700000000     0.0359722  
H177     H      0.907590000000     0.478250000000     0.317320000000     0.0294187  
H178     H      0.759650000000     0.543340000000     0.270510000000     0.0451321  
H179     H      0.819200000000     0.468560000000     0.410340000000     0.0357293  
H180     H      0.725540000000     0.401150000000     0.226480000000     0.0432777  
H181     H      0.797580000000     0.434590000000     0.348370000000     0.0366149  
H182     H      0.578550000000     0.472820000000     0.175800000000     0.0352309  
H183     H      0.694620000000     0.508860000000     0.147660000000     0.0378843  
H184     H      0.639880000000     0.507210000000     0.200630000000     0.0374816  
H185     H      0.778720000000     0.412270000000     0.278870000000     0.0400541  
H186     H      0.848530000000     0.440450000000     0.295720000000     0.0389122  
H187     H      0.668390000000     0.426230000000     0.109690000000     0.0326167  
H188     H      0.276150000000     0.568050000000     0.208630000000     0.0401257  
H189     H      0.131250000000     0.515350000000     0.259350000000     0.0347362  
H190     H      0.225850000000     0.518450000000     0.348650000000     0.0392687  
H191     H      0.316710000000     0.461860000000     0.102160000000     0.0256262  
H192     H      0.102480000000     0.555420000000     0.314170000000     0.0352166  
H193     H      0.351320000000     0.495630000000     0.225290000000     0.034048   
H194     H      0.261840000000     0.501580000000     0.131280000000     0.034333   
H195     H      0.407180000000     0.505960000000     0.172950000000     0.0345897  
H196     H      0.172830000000     0.511540000000     0.404510000000     0.0279427  
H197     H      0.222600000000     0.579090000000     0.260420000000     0.0448561  
H198     H      0.078440000000     0.505830000000     0.314820000000     0.0329121  
H199     H      0.261350000000     0.436690000000     0.221150000000     0.0430441  
H200     H      0.140060000000     0.471480000000     0.292030000000     0.0351264  
H201     H      0.317660000000     0.511920000000     0.079060000000     0.0358213  
H202     H      0.346110000000     0.541780000000     0.195050000000     0.0370595  
H203     H      0.294710000000     0.545190000000     0.140910000000     0.0376359  
H204     H      0.208120000000     0.447780000000     0.273390000000     0.040011   
H205     H      0.193210000000     0.474290000000     0.344160000000     0.0387755  
H206     H      0.380890000000     0.457550000000     0.169550000000     0.0265155  
H207     H      0.228960000000     0.520960000000     0.814890000000     0.0387575  
H208     H      0.221670000000     0.553000000000     0.635050000000     0.0339647  
H209     H      0.150970000000     0.479110000000     0.717010000000     0.037443   
H210     H      0.344730000000     0.572750000000     0.871520000000     0.0298636  
H211     H      0.155140000000     0.567860000000     0.612990000000     0.0317917  
H212     H      0.354240000000     0.487180000000     0.768280000000     0.0335856  
H213     H      0.278110000000     0.556290000000     0.849410000000     0.0336483  
H214     H      0.406200000000     0.480580000000     0.821620000000     0.0370501  
H215     H      0.097880000000     0.470940000000     0.663510000000     0.0300901  
H216     H      0.177660000000     0.523570000000     0.762500000000     0.0425537  
H217     H      0.173990000000     0.530470000000     0.577650000000     0.035153   
H218     H      0.323750000000     0.526950000000     0.721870000000     0.0411259  
H219     H      0.216580000000     0.498030000000     0.627390000000     0.0367384  
H220     H      0.325260000000     0.536210000000     0.907580000000     0.034458   
H221     H      0.332190000000     0.463550000000     0.812780000000     0.0417832  
H222     H      0.284960000000     0.501430000000     0.856910000000     0.0373507  
H223     H      0.272550000000     0.520080000000     0.669620000000     0.0389368  
H224     H      0.171670000000     0.458530000000     0.670900000000     0.042726   
H225     H      0.396320000000     0.533660000000     0.809740000000     0.0339653  
H226     H      0.716780000000     0.435910000000     0.781700000000     0.0399333  
H227     H      0.767560000000     0.485800000000     0.640230000000     0.0345294  
H228     H      0.860960000000     0.487270000000     0.730790000000     0.0388521  
H229     H      0.614890000000     0.547640000000     0.824410000000     0.0335674  
H230     H      0.822710000000     0.446690000000     0.610410000000     0.0342601  
H231     H      0.733010000000     0.501990000000     0.859950000000     0.0343437  
H232     H      0.642480000000     0.509980000000     0.767040000000     0.0344059  
H233     H      0.677860000000     0.491600000000     0.912820000000     0.0355218  
H234     H      0.914070000000     0.497760000000     0.674820000000     0.0298375  
H235     H      0.769130000000     0.424570000000     0.728720000000     0.0442616  
H236     H      0.820340000000     0.495590000000     0.585060000000     0.0353267  
H237     H      0.733710000000     0.567120000000     0.770530000000     0.0436228  
H238     H      0.799240000000     0.530820000000     0.646850000000     0.0368041  
H239     H      0.587090000000     0.500230000000     0.819450000000     0.0355735  
H240     H      0.699950000000     0.458560000000     0.850160000000     0.0371503  
H241     H      0.647450000000     0.463250000000     0.796450000000     0.0373029  
H242     H      0.785780000000     0.555780000000     0.717250000000     0.0395981  
H243     H      0.853260000000     0.530940000000     0.698280000000     0.0386331  
H244     H      0.678100000000     0.541660000000     0.889690000000     0.0329504  
H245     H      0.792580000000     0.766610000000     0.935170000000     0.0412055  
H246     H      0.738730000000     0.623380000000     0.991330000000     0.030148   
H247     H      0.652790000000     0.721520000000     0.989100000000     0.0383537  
H248     H      0.899230000000     0.813110000000     0.038750000000     0.0312981  
H249     H      0.681230000000     0.595830000000     0.954220000000     0.0357534  
H250     H      0.774410000000     0.843140000000     0.005080000000     0.0388548  
H251     H      0.871390000000     0.756290000000     0.000860000000     0.038992   
H252     H      0.824890000000     0.900440000000     0.993200000000     0.0308175  
H253     H      0.595460000000     0.670450000000     0.001400000000     0.0324756  
H254     H      0.739740000000     0.713400000000     0.926390000000     0.0434784  
H255     H      0.681570000000     0.572870000000     0.004140000000     0.0393747  
H256     H      0.781950000000     0.755320000000     0.066390000000     0.0446104  
H257     H      0.707980000000     0.634490000000     0.035920000000     0.0351409  
H258     H      0.921880000000     0.813800000000     0.988690000000     0.031415   
H259     H      0.804730000000     0.837710000000     0.959170000000     0.0391036  
H260     H      0.860420000000     0.787810000000     0.956720000000     0.0389683  
H261     H      0.728970000000     0.702280000000     0.057600000000     0.0386681  
H262     H      0.658060000000     0.690080000000     0.033830000000     0.0412472  
H263     H      0.829370000000     0.875410000000     0.041970000000     0.0311015  
H264     H      0.697460000000     0.263210000000     0.065290000000     0.0388684  
H265     H      0.757500000000     0.123040000000     0.009210000000     0.0351962  
H266     H      0.842550000000     0.221220000000     0.021970000000     0.0386114  
H267     H      0.598090000000     0.312350000000     0.956120000000     0.0329854  
H268     H      0.812380000000     0.094980000000     0.050060000000     0.0336567  
H269     H      0.720570000000     0.342030000000     0.998600000000     0.0298279  
H270     H      0.623940000000     0.254790000000     0.994270000000     0.0298093  
H271     H      0.669270000000     0.398830000000     0.008030000000     0.0402631  
H272     H      0.901190000000     0.171050000000     0.014310000000     0.0297764  
H273     H      0.750380000000     0.210560000000     0.076560000000     0.0457487  
H274     H      0.815390000000     0.073090000000     0.999740000000     0.0324457  
H275     H      0.719010000000     0.256790000000     0.935080000000     0.042516   
H276     H      0.791640000000     0.135690000000     0.967560000000     0.0347476  
H277     H      0.572450000000     0.312030000000     0.004710000000     0.0399625  
H278     H      0.687140000000     0.335480000000     0.042160000000     0.0354755  
H279     H      0.631810000000     0.285220000000     0.039790000000     0.0351902  
H280     H      0.772230000000     0.204400000000     0.946420000000     0.0414026  
H281     H      0.841410000000     0.191420000000     0.975810000000     0.0362351  
H282     H      0.668080000000     0.374730000000     0.958610000000     0.0344532  
H283     H      0.237960000000     0.689330000000     0.042460000000     0.0391715  
H284     H      0.230670000000     0.856070000000     0.989000000000     0.0339749  
H285     H      0.158460000000     0.801910000000     0.083800000000     0.0359855  
H286     H      0.402810000000     0.692290000000     0.002660000000     0.0349646  
H287     H      0.191700000000     0.909450000000     0.024990000000     0.0335706  
H288     H      0.277790000000     0.659210000000     0.989390000000     0.0295413  
H289     H      0.366040000000     0.728040000000     0.056750000000     0.0337554  
H290     H      0.325340000000     0.597780000000     0.991450000000     0.0353885  
H291     H      0.096290000000     0.841670000000     0.054260000000     0.0350801  
H292     H      0.187550000000     0.742400000000     0.048630000000     0.0389914  
H293     H      0.175300000000     0.903920000000     0.972540000000     0.0247968  
H294     H      0.332100000000     0.780780000000     0.021130000000     0.0422315  
H295     H      0.184800000000     0.828060000000     0.976380000000     0.0412809  
H296     H      0.415490000000     0.669850000000     0.051380000000     0.0353822  
H297     H      0.134470000000     0.884180000000     0.099330000000     0.0237687  
H298     H      0.293160000000     0.642940000000     0.040120000000     0.0357613  
H299     H      0.345230000000     0.681140000000     0.077160000000     0.0398782  
H300     H      0.281940000000     0.834960000000     0.033540000000     0.0419428  
H301     H      0.144740000000     0.793720000000     0.031000000000     0.0393708  
H302     H      0.340850000000     0.639400000000     0.959210000000     0.0306411  
H303     H      0.269290000000     0.294380000000     0.041430000000     0.0388338  
H304     H      0.124940000000     0.239340000000     0.991180000000     0.0332434  
H305     H      0.222670000000     0.153070000000     0.990710000000     0.0380465  
H306     H      0.314520000000     0.399450000000     0.935910000000     0.0344823  
H307     H      0.098600000000     0.183370000000     0.031190000000     0.031693   
H308     H      0.343600000000     0.275650000000     0.968260000000     0.0348271  
H309     H      0.256880000000     0.372830000000     0.974290000000     0.0347474  
H310     H      0.400940000000     0.325530000000     0.978700000000     0.0324888  
H311     H      0.170900000000     0.095270000000     0.983260000000     0.0289685  
H312     H      0.216800000000     0.241390000000     0.052820000000     0.0440911  
H313     H      0.073990000000     0.181460000000     0.982140000000     0.0351739  
H314     H      0.253670000000     0.281580000000     0.910840000000     0.0436013  
H315     H      0.133860000000     0.207160000000     0.947090000000     0.0365215  
H316     H      0.313730000000     0.423700000000     0.985310000000     0.0317204  
H317     H      0.339060000000     0.305230000000     0.014820000000     0.0382873  
H318     H      0.288430000000     0.361870000000     0.018380000000     0.0377667  
H319     H      0.201270000000     0.228330000000     0.922300000000     0.0395884  
H320     H      0.188700000000     0.157120000000     0.947810000000     0.0390765  
H321     H      0.373640000000     0.332730000000     0.931520000000     0.0336865  
H322     H      0.719480000000     0.064940000000     0.720370000000     0.0394059  
H323     H      0.762050000000     0.997160000000     0.862720000000     0.0338503  
H324     H      0.851810000000     0.999120000000     0.768690000000     0.0390322  
H325     H      0.602320000000     0.972410000000     0.677540000000     0.0342255  
H326     H      0.817890000000     0.031210000000     0.895580000000     0.0356304  
H327     H      0.729540000000     0.995240000000     0.642070000000     0.0320244  
H328     H      0.636080000000     0.008140000000     0.731280000000     0.0353412  
H329     H      0.677350000000     0.013740000000     0.586830000000     0.0375305  
H330     H      0.906940000000     0.985860000000     0.821740000000     0.0287773  
H331     H      0.771030000000     0.067620000000     0.775200000000     0.0453594  
H332     H      0.817790000000     0.979450000000     0.914400000000     0.0342075  
H333     H      0.717930000000     0.932380000000     0.728330000000     0.0437568  
H334     H      0.792060000000     0.952010000000     0.851230000000     0.0363754  
H335     H      0.585310000000     0.024770000000     0.674930000000     0.035209   
H336     H      0.703370000000     0.043650000000     0.648750000000     0.0356852  
H337     H      0.649960000000     0.050800000000     0.698770000000     0.0363745  
H338     H      0.770100000000     0.935080000000     0.782680000000     0.0410059  
H339     H      0.844270000000     0.954250000000     0.799620000000     0.0408625  
H340     H      0.672580000000     0.963660000000     0.609200000000     0.0332391  
H341     H      0.279250000000     0.953670000000     0.713680000000     0.0402412  
H342     H      0.227700000000     0.011480000000     0.852060000000     0.0350808  
H343     H      0.135110000000     0.005720000000     0.760950000000     0.0387984  
H344     H      0.385170000000     0.059690000000     0.670960000000     0.0327549  
H345     H      0.175160000000     0.971610000000     0.884260000000     0.0305236  
H346     H      0.264410000000     0.021570000000     0.634430000000     0.0343561  
H347     H      0.354930000000     0.023330000000     0.727710000000     0.0341708  
H348     H      0.318790000000     0.009270000000     0.581650000000     0.0366677  
H349     H      0.081070000000     0.015480000000     0.816680000000     0.0313969  
H350     H      0.225890000000     0.944360000000     0.765960000000     0.0445921  
H351     H      0.173630000000     0.022150000000     0.906190000000     0.0350221  
H352     H      0.263630000000     0.085350000000     0.721020000000     0.0437339  
H353     H      0.193990000000     0.054610000000     0.843280000000     0.0367346  
H354     H      0.409850000000     0.010500000000     0.675250000000     0.0361348  
H355     H      0.295090000000     0.976270000000     0.643710000000     0.0356844  
H356     H      0.347460000000     0.977250000000     0.697790000000     0.0353875  
H357     H      0.209930000000     0.075960000000     0.773110000000     0.0398156  
H358     H      0.140790000000     0.050460000000     0.792400000000     0.0380065  
H359     H      0.321610000000     0.058800000000     0.605850000000     0.0329453  
H360     H      0.283380000000     0.067420000000     0.272030000000     0.0401594  
H361     H      0.234290000000     0.004090000000     0.132580000000     0.0380607  
H362     H      0.144580000000     0.006660000000     0.226650000000     0.0415371  
H363     H      0.391580000000     0.965290000000     0.320770000000     0.0341483  
H364     H      0.178740000000     0.040750000000     0.101610000000     0.0309935  
H365     H      0.267990000000     0.004120000000     0.352660000000     0.0349795  
H366     H      0.362000000000     0.999650000000     0.263130000000     0.0320256  
H367     H      0.321300000000     0.020390000000     0.406760000000     0.0347293  
H368     H      0.089450000000     0.993450000000     0.173290000000     0.0258205  
H369     H      0.231170000000     0.072750000000     0.218050000000     0.0446855  
H370     H      0.178750000000     0.989890000000     0.080320000000     0.0342544  
H371     H      0.274260000000     0.934990000000     0.267820000000     0.0448099  
H372     H      0.203090000000     0.959480000000     0.143140000000     0.0382337  
H373     H      0.414490000000     0.015360000000     0.317790000000     0.0389482  
H374     H      0.299000000000     0.048960000000     0.342580000000     0.0364696  
H375     H      0.352830000000     0.046350000000     0.291550000000     0.0356797  
H376     H      0.222050000000     0.940380000000     0.213690000000     0.0402989  
H377     H      0.151450000000     0.961820000000     0.195540000000     0.0391671  
H378     H      0.322530000000     0.968970000000     0.386920000000     0.0322242  
H379     H      0.786890000000     0.930480000000     0.219210000000     0.039573   
H380     H      0.731260000000     0.977000000000     0.361170000000     0.0344871  
H381     H      0.641240000000     0.978320000000     0.267230000000     0.0397211  
H382     H      0.889660000000     0.041670000000     0.178260000000     0.0324864  
H383     H      0.674770000000     0.937090000000     0.387840000000     0.0344165  
H384     H      0.769150000000     0.001180000000     0.143620000000     0.0378149  
H385     H      0.862130000000     0.002070000000     0.234420000000     0.0373023  
H386     H      0.822330000000     0.993010000000     0.088880000000     0.0339399  
H387     H      0.585970000000     0.988240000000     0.321140000000     0.0278075  
H388     H      0.733300000000     0.917470000000     0.270620000000     0.0442193  
H389     H      0.676780000000     0.985250000000     0.414500000000     0.0315837  
H390     H      0.769290000000     0.061240000000     0.233780000000     0.0435991  
H391     H      0.699550000000     0.021910000000     0.353900000000     0.0363679  
H392     H      0.916030000000     0.993230000000     0.179820000000     0.0310263  
H393     H      0.801410000000     0.956540000000     0.150180000000     0.0385719  
H394     H      0.855200000000     0.956980000000     0.202980000000     0.0379782  
H395     H      0.715790000000     0.048230000000     0.285250000000     0.0394109  
H396     H      0.647380000000     0.022060000000     0.299960000000     0.0399857  
H397     H      0.824470000000     0.041400000000     0.115190000000     0.0332409  
H398     H      0.067020000000     0.215120000000     0.779470000000     0.0399379  
H399     H      0.017260000000     0.264170000000     0.633270000000     0.0348305  
H400     H      0.018990000000     0.356180000000     0.725510000000     0.0393688  
H401     H      0.956960000000     0.111350000000     0.819700000000     0.0358358  
H402     H      0.056970000000     0.319260000000     0.603720000000     0.0345722  
H403     H      0.996570000000     0.232280000000     0.855190000000     0.0328598  
H404     H      0.997770000000     0.138690000000     0.764870000000     0.0335578  
H405     H      0.006080000000     0.178220000000     0.910280000000     0.0366451  
H406     H      0.012250000000     0.411000000000     0.671410000000     0.0316443  
H407     H      0.079010000000     0.266050000000     0.725060000000     0.044413   
H408     H      0.007820000000     0.318710000000     0.579090000000     0.0347028  
H409     H      0.936330000000     0.229490000000     0.763990000000     0.0441923  
H410     H      0.973080000000     0.296670000000     0.640920000000     0.0363485  
H411     H      0.005360000000     0.085050000000     0.819670000000     0.0390765  
H412     H      0.041330000000     0.200310000000     0.848960000000     0.0362586  
H413     H      0.041800000000     0.146120000000     0.797500000000     0.0365051  
H414     H      0.948340000000     0.280590000000     0.709710000000     0.0405965  
H415     H      0.975120000000     0.350620000000     0.692920000000     0.0400455  
H416     H      0.957120000000     0.177670000000     0.885250000000     0.032193   
H417     H      0.927670000000     0.712240000000     0.721500000000     0.0396423  
H418     H      0.992570000000     0.764840000000     0.857310000000     0.0333244  
H419     H      0.981430000000     0.856390000000     0.765310000000     0.0390229  
H420     H      0.033390000000     0.608840000000     0.670790000000     0.0376227  
H421     H      0.955760000000     0.819410000000     0.890580000000     0.0343039  
H422     H      0.988150000000     0.730330000000     0.638660000000     0.0342101  
H423     H      0.998840000000     0.637260000000     0.728890000000     0.0348234  
H424     H      0.973960000000     0.675880000000     0.585310000000     0.0351623  
H425     H      0.995900000000     0.911220000000     0.818780000000     0.0302884  
H426     H      0.921290000000     0.765020000000     0.775020000000     0.0440577  
H427     H      0.007280000000     0.819380000000     0.909840000000     0.0360018  
H428     H      0.059020000000     0.729190000000     0.720570000000     0.0443748  
H429     H      0.035500000000     0.797680000000     0.845090000000     0.0369783  
H430     H      0.984770000000     0.583300000000     0.674950000000     0.0366117  
H431     H      0.945220000000     0.697110000000     0.649810000000     0.0364853  
H432     H      0.951340000000     0.643910000000     0.701310000000     0.0363371  
H433     H      0.052630000000     0.782010000000     0.774020000000     0.0403733  
H434     H      0.028380000000     0.850620000000     0.793240000000     0.0407731  
H435     H      0.025480000000     0.677020000000     0.604580000000     0.0349644  
H436     H      0.067070000000     0.707220000000     0.274790000000     0.0412638  
H437     H      0.003530000000     0.767330000000     0.140350000000     0.0352315  
H438     H      0.054330000000     0.856570000000     0.220980000000     0.0353971  
H439     H      0.948300000000     0.620250000000     0.320000000000     0.0335434  
H440     H      0.049880000000     0.808750000000     0.099920000000     0.0302385  
H441     H      0.000070000000     0.735220000000     0.358280000000     0.0349162  
H442     H      0.990170000000     0.645420000000     0.264530000000     0.0339172  
H443     H      0.001640000000     0.679840000000     0.411410000000     0.0396054  
H444     H      0.053370000000     0.909490000000     0.164880000000     0.0324441  
H445     H      0.083170000000     0.756540000000     0.220130000000     0.0433686  
H446     H      0.998060000000     0.820040000000     0.084850000000     0.0353099  
H447     H      0.942000000000     0.750830000000     0.277030000000     0.0440224  
H448     H      0.972980000000     0.811610000000     0.154100000000     0.0368636  
H449     H      0.993620000000     0.589070000000     0.317090000000     0.0373406  
H450     H      0.105360000000     0.859540000000     0.149850000000     0.0196193  
H451     H      0.041170000000     0.698800000000     0.350580000000     0.0405092  
H452     H      0.035550000000     0.646680000000     0.296200000000     0.0380135  
H453     H      0.958770000000     0.801800000000     0.224010000000     0.040013   
H454     H      0.003570000000     0.864660000000     0.200770000000     0.0394878  
H455     H      0.954040000000     0.682700000000     0.383930000000     0.0333847  
H456     H      0.058980000000     0.216150000000     0.213920000000     0.0399052  
H457     H      0.999900000000     0.360860000000     0.261210000000     0.0346279  
H458     H      0.009840000000     0.268190000000     0.352260000000     0.0409144  
H459     H      0.953210000000     0.175130000000     0.108470000000     0.0372645  
H460     H      0.039240000000     0.393410000000     0.314210000000     0.0276909  
H461     H      0.989050000000     0.138450000000     0.229950000000     0.0338114  
H462     H      0.992710000000     0.229840000000     0.137440000000     0.0336898  
H463     H      0.000560000000     0.083560000000     0.176320000000     0.0356835  
H464     H      0.000710000000     0.322190000000     0.407030000000     0.0310764  
H465     H      0.068430000000     0.271430000000     0.264370000000     0.0448102  
H466     H      0.988340000000     0.414300000000     0.316120000000     0.0339881  
H467     H      0.927590000000     0.227160000000     0.226500000000     0.0441744  
H468     H      0.957440000000     0.350400000000     0.295090000000     0.0378691  
H469     H      0.002500000000     0.175220000000     0.084120000000     0.033777   
H470     H      0.034710000000     0.145210000000     0.199440000000     0.0364154  
H471     H      0.036580000000     0.197020000000     0.146000000000     0.0351509  
H472     H      0.937070000000     0.281890000000     0.277550000000     0.0408835  
H473     H      0.964120000000     0.298490000000     0.347900000000     0.0421437  
H474     H      0.951440000000     0.108330000000     0.174470000000     0.0345425  
N1       N      0.508630000000     0.121020000000     0.363390000000    -0.19649    
N2       N      0.513730000000     0.178750000000     0.298740000000    -0.110131   
N3       N      0.482940000000     0.298940000000     0.175220000000    -0.112934   
N4       N      0.487960000000     0.362650000000     0.116640000000    -0.192934   
N5       N      0.490100000000     0.866570000000     0.376430000000    -0.193495   
N6       N      0.481330000000     0.802530000000     0.318400000000    -0.108863   
N7       N      0.484330000000     0.680290000000     0.190910000000    -0.111258   
N8       N      0.493580000000     0.618350000000     0.131100000000    -0.191015   
N9       N      0.491790000000     0.878570000000     0.632120000000    -0.190133   
N10      N      0.501040000000     0.819730000000     0.694790000000    -0.109998   
N11      N      0.491370000000     0.696550000000     0.818720000000    -0.112087   
N12      N      0.503370000000     0.632900000000     0.876040000000    -0.187369   
N13      N      0.480390000000     0.376360000000     0.861780000000    -0.192501   
N14      N      0.480780000000     0.317530000000     0.797880000000    -0.110021   
N15      N      0.524350000000     0.197480000000     0.678000000000    -0.112756   
N16      N      0.520940000000     0.133990000000     0.618830000000    -0.189882   
N17      N      0.880040000000     0.361770000000     0.478880000000    -0.192894   
N18      N      0.822450000000     0.296800000000     0.473260000000    -0.1102     
N19      N      0.699990000000     0.176240000000     0.507250000000    -0.112527   
N20      N      0.634820000000     0.119100000000     0.502900000000    -0.193165   
N21      N      0.859360000000     0.617510000000     0.496690000000    -0.191041   
N22      N      0.794600000000     0.674340000000     0.490530000000    -0.110134   
N23      N      0.673390000000     0.798370000000     0.511460000000    -0.112355   
N24      N      0.617040000000     0.863250000000     0.502540000000    -0.190387   
N25      N      0.135190000000     0.382850000000     0.490100000000    -0.196237   
N26      N      0.200070000000     0.326290000000     0.480310000000    -0.109958   
N27      N      0.323930000000     0.203550000000     0.495260000000    -0.112199   
N28      N      0.379940000000     0.138230000000     0.486860000000    -0.189725   
N29      N      0.115310000000     0.638380000000     0.486140000000    -0.191173   
N30      N      0.172790000000     0.703700000000     0.484550000000    -0.109905   
N31      N      0.295190000000     0.825330000000     0.516790000000    -0.112598   
N32      N      0.360870000000     0.882270000000     0.510830000000    -0.186315   
N33      N      0.867050000000     0.486420000000     0.368450000000    -0.191216   
N34      N      0.804110000000     0.486880000000     0.309030000000    -0.10986    
N35      N      0.681550000000     0.457970000000     0.187270000000    -0.112708   
N36      N      0.621310000000     0.468200000000     0.125450000000    -0.188902   
N37      N      0.121010000000     0.518160000000     0.364120000000    -0.195325   
N38      N      0.180660000000     0.522430000000     0.301400000000    -0.110024   
N39      N      0.303820000000     0.493480000000     0.180560000000    -0.112825   
N40      N      0.366750000000     0.498650000000     0.121310000000    -0.192875   
N41      N      0.127320000000     0.509560000000     0.619600000000    -0.194058   
N42      N      0.187220000000     0.521690000000     0.681100000000    -0.108547   
N43      N      0.314230000000     0.526410000000     0.803650000000    -0.111121   
N44      N      0.372460000000     0.514330000000     0.866800000000    -0.191483   
N45      N      0.872010000000     0.486440000000     0.625380000000    -0.189601   
N46      N      0.811850000000     0.481030000000     0.687920000000    -0.110132   
N47      N      0.690670000000     0.510660000000     0.811040000000    -0.112534   
N48      N      0.628200000000     0.504460000000     0.871060000000    -0.186451   
N49      N      0.633470000000     0.617050000000     0.992850000000    -0.189907   
N50      N      0.698210000000     0.674310000000     0.984570000000    -0.111378   
N51      N      0.820830000000     0.797090000000     0.008240000000    -0.108817   
N52      N      0.878020000000     0.861780000000     0.001240000000    -0.187244   
N53      N      0.862610000000     0.117230000000     0.015170000000    -0.192124   
N54      N      0.797000000000     0.173920000000     0.020700000000    -0.11149    
N55      N      0.674720000000     0.295890000000     0.991230000000    -0.116229   
N56      N      0.616850000000     0.360280000000     0.995770000000    -0.187656   
N57      N      0.133870000000     0.880690000000     0.017690000000    -0.194401   
N58      N      0.200160000000     0.827780000000     0.040240000000    -0.108537   
N59      N      0.320280000000     0.699200000000     0.019250000000    -0.111803   
N60      N      0.377160000000     0.633270000000     0.012380000000    -0.186912   
N61      N      0.118340000000     0.133700000000     0.994070000000    -0.195466   
N62      N      0.175870000000     0.198730000000     0.996790000000    -0.110565   
N63      N      0.297200000000     0.321800000000     0.967000000000    -0.111266   
N64      N      0.361960000000     0.379260000000     0.975320000000    -0.193239   
N65      N      0.867120000000     0.994990000000     0.873370000000    -0.1913     
N66      N      0.805110000000     0.004850000000     0.814310000000    -0.108747   
N67      N      0.684070000000     0.995300000000     0.688900000000    -0.113551   
N68      N      0.625630000000     0.005090000000     0.626650000000    -0.188447   
N69      N      0.123280000000     0.006500000000     0.866280000000    -0.191762   
N70      N      0.183720000000     0.002340000000     0.804710000000    -0.110117   
N71      N      0.307090000000     0.027290000000     0.683470000000    -0.113388   
N72      N      0.369080000000     0.018130000000     0.623760000000    -0.187367   
N73      N      0.129310000000     0.003720000000     0.121870000000    -0.197636   
N74      N      0.191470000000     0.011850000000     0.181200000000    -0.107615   
N75      N      0.312830000000     0.996090000000     0.305900000000    -0.115264   
N76      N      0.372350000000     0.005980000000     0.367630000000    -0.187936   
N77      N      0.626350000000     0.977660000000     0.372130000000    -0.19521    
N78      N      0.688960000000     0.972610000000     0.311690000000    -0.109377   
N79      N      0.812820000000     0.006110000000     0.191870000000    -0.108626   
N80      N      0.873670000000     0.001520000000     0.129820000000    -0.188653   
N81      N      0.018800000000     0.369320000000     0.620470000000    -0.190104   
N82      N      0.023270000000     0.307400000000     0.681870000000    -0.110212   
N83      N      0.992100000000     0.188130000000     0.807240000000    -0.11415    
N84      N      0.995160000000     0.127330000000     0.869560000000    -0.186431   
N85      N      0.991420000000     0.869790000000     0.869850000000    -0.190198   
N86      N      0.981120000000     0.808170000000     0.809770000000    -0.110649   
N87      N      0.999200000000     0.686240000000     0.685610000000    -0.112428   
N88      N      0.991040000000     0.625600000000     0.624640000000    -0.186831   
N89      N      0.028810000000     0.867370000000     0.119940000000    -0.191751   
N90      N      0.032010000000     0.808120000000     0.182870000000    -0.112443   
N91      N      0.991010000000     0.693630000000     0.308740000000    -0.114084   
N92      N      0.989940000000     0.630660000000     0.368560000000    -0.187906   
N93      N      0.004840000000     0.373500000000     0.365560000000    -0.196558   
N94      N      0.010670000000     0.312780000000     0.304170000000    -0.109094   
N95      N      0.985400000000     0.186570000000     0.185860000000    -0.113217   
N96      N      0.990750000000     0.124950000000     0.125660000000    -0.191969   
O1       O      0.991860000000     0.107520000000     0.056620000000    -0.625149   
O2       O      0.010170000000     0.886050000000     0.054300000000    -0.577427   
O3       O      0.942860000000     0.998370000000     0.110770000000    -0.618657   
O4       O      0.059880000000     0.999100000000     0.106080000000    -0.637197   
O5       O      0.110100000000     0.001780000000     0.052990000000    -0.626262   
O6       O      0.889930000000     0.995580000000     0.060500000000    -0.573164   
O7       O      0.016480000000     0.937310000000     0.106090000000    -0.594116   
O8       O      0.995580000000     0.055520000000     0.108110000000    -0.625996   
O9       O      0.042120000000     0.960430000000     0.036130000000    -1.49312    
O10      O      0.957630000000     0.035560000000     0.039490000000    -1.46876    
O11      O      0.955850000000     0.947910000000     0.041170000000    -1.07121    
O12      O      0.038980000000     0.042050000000     0.038570000000    -1.63056    
O13      O      0.001160000000     0.887260000000     0.938430000000    -0.574624   
O14      O      0.995170000000     0.109690000000     0.939130000000    -0.603918   
O15      O      0.891440000000     0.932220000000     0.000020000000    -0.571218   
O16      O      0.113200000000     0.946590000000     0.000680000000    -0.621862   
O17      O      0.104700000000     0.063250000000     0.992580000000    -0.637111   
O18      O      0.884630000000     0.049840000000     0.005540000000    -0.576781   
O19      O      0.936730000000     0.995010000000     0.889220000000    -0.562877   
O20      O      0.054450000000     0.003100000000     0.885740000000    -0.568738   
O21      O      0.886410000000     0.991510000000     0.942180000000    -0.568972   
O22      O      0.107350000000     0.008090000000     0.935830000000    -0.625818   
O23      O      0.946100000000     0.883510000000     0.998160000000    -0.569105   
O24      O      0.932940000000     0.104860000000     0.006990000000    -0.601994   
O25      O      0.050050000000     0.111980000000     0.994510000000    -0.626626   
O26      O      0.064430000000     0.892020000000     0.006110000000    -0.559984   
O27      O      0.994930000000     0.939250000000     0.887290000000    -0.56323    
O28      O      0.995720000000     0.057810000000     0.887570000000    -0.563801   
O29      O      0.035490000000     0.041200000000     0.956500000000    -1.46498    
O30      O      0.959480000000     0.955580000000     0.958630000000    -1.37021    
O31      O      0.948100000000     0.037300000000     0.952980000000    -1.06504    
O32      O      0.041880000000     0.953380000000     0.949680000000    -1.05251    
O33      O      0.003400000000     0.390320000000     0.434770000000    -0.627296   
O34      O      0.990620000000     0.611420000000     0.437310000000    -0.570209   
O35      O      0.936600000000     0.491600000000     0.384880000000    -0.612472   
O36      O      0.052590000000     0.509240000000     0.383230000000    -0.630634   
O37      O      0.105340000000     0.512630000000     0.433680000000    -0.627497   
O38      O      0.885920000000     0.488750000000     0.437430000000    -0.567756   
O39      O      0.994020000000     0.560740000000     0.384700000000    -0.609831   
O40      O      0.997700000000     0.442580000000     0.383820000000    -0.629401   
O41      O      0.033490000000     0.543830000000     0.453860000000    -1.47188    
O42      O      0.959820000000     0.456640000000     0.454390000000    -1.46973    
O43      O      0.946020000000     0.543100000000     0.454420000000    -1.0636     
O44      O      0.041560000000     0.461910000000     0.451150000000    -1.6381     
O45      O      0.988790000000     0.609000000000     0.555290000000    -0.56826    
O46      O      0.011790000000     0.387620000000     0.551440000000    -0.608319   
O47      O      0.882210000000     0.549540000000     0.498550000000    -0.569487   
O48      O      0.103020000000     0.567650000000     0.488130000000    -0.612132   
O49      O      0.111950000000     0.450610000000     0.493620000000    -0.636359   
O50      O      0.892070000000     0.431600000000     0.489820000000    -0.575371   
O51      O      0.940670000000     0.493410000000     0.606210000000    -0.563796   
O52      O      0.058800000000     0.499090000000     0.603180000000    -0.568894   
O53      O      0.887930000000     0.490170000000     0.555680000000    -0.567599   
O54      O      0.109140000000     0.507240000000     0.550780000000    -0.620642   
O55      O      0.929750000000     0.605340000000     0.497810000000    -0.572691   
O56      O      0.947720000000     0.384150000000     0.486540000000    -0.609579   
O57      O      0.064700000000     0.394570000000     0.493910000000    -0.62768    
O58      O      0.047520000000     0.615190000000     0.491910000000    -0.564395   
O59      O      0.994180000000     0.556400000000     0.606000000000    -0.562657   
O60      O      0.008110000000     0.438490000000     0.603790000000    -0.56334    
O61      O      0.042060000000     0.461820000000     0.533110000000    -1.46305    
O62      O      0.954760000000     0.535780000000     0.536180000000    -1.36126    
O63      O      0.954890000000     0.452800000000     0.541250000000    -1.06587    
O64      O      0.035920000000     0.548860000000     0.541010000000    -1.05457    
O65      O      0.608530000000     0.986410000000     0.440880000000    -0.630823   
O66      O      0.388800000000     0.007420000000     0.437180000000    -0.569684   
O67      O      0.495840000000     0.936270000000     0.390320000000    -0.61549    
O68      O      0.501740000000     0.053080000000     0.384970000000    -0.629719   
O69      O      0.505240000000     0.107670000000     0.433590000000    -0.631106   
O70      O      0.494860000000     0.886930000000     0.444440000000    -0.571228   
O71      O      0.441210000000     0.004130000000     0.386400000000    -0.610842   
O72      O      0.557210000000     0.986850000000     0.388910000000    -0.623722   
O73      O      0.461380000000     0.042110000000     0.454900000000    -1.46214    
O74      O      0.536100000000     0.955320000000     0.459930000000    -1.46604    
O75      O      0.448540000000     0.955130000000     0.458150000000    -1.05249    
O76      O      0.543740000000     0.037350000000     0.454280000000    -1.63827    
O77      O      0.387300000000     0.011330000000     0.555160000000    -0.567145   
O78      O      0.608840000000     0.000870000000     0.557350000000    -0.610123   
O79      O      0.431300000000     0.894500000000     0.505630000000    -0.565361   
O80      O      0.447900000000     0.115710000000     0.487340000000    -0.617368   
O81      O      0.564680000000     0.106490000000     0.496960000000    -0.628004   
O82      O      0.549260000000     0.885830000000     0.501750000000    -0.573395   
O83      O      0.492720000000     0.947330000000     0.611200000000    -0.571128   
O84      O      0.507190000000     0.065090000000     0.604700000000    -0.577048   
O85      O      0.489870000000     0.892970000000     0.562210000000    -0.566733   
O86      O      0.512600000000     0.114050000000     0.550660000000    -0.609645   
O87      O      0.383450000000     0.949960000000     0.502540000000    -0.563142   
O88      O      0.604580000000     0.933660000000     0.498140000000    -0.618602   
O89      O      0.612490000000     0.051030000000     0.499770000000    -0.63065    
O90      O      0.392590000000     0.067810000000     0.491140000000    -0.572782   
O91      O      0.438400000000     0.010600000000     0.607420000000    -0.574106   
O92      O      0.556630000000     0.005540000000     0.608290000000    -0.576348   
O93      O      0.541050000000     0.039940000000     0.535970000000    -1.48214    
O94      O      0.454990000000     0.965470000000     0.539600000000    -1.37294    
O95      O      0.536380000000     0.953500000000     0.547210000000    -1.06549    
O96      O      0.454580000000     0.048510000000     0.541690000000    -1.06497    
O97      O      0.383650000000     0.446870000000     0.985960000000    -0.628309   
O98      O      0.603530000000     0.430670000000     0.996970000000    -0.574252   
O99      O      0.485550000000     0.389980000000     0.931640000000    -0.614524   
O100     O      0.490910000000     0.383770000000     0.048340000000    -0.625611   
O101     O      0.492870000000     0.432680000000     0.102720000000    -0.631715   
O102     O      0.491390000000     0.444250000000     0.883000000000    -0.570397   
O103     O      0.548620000000     0.382260000000     0.995340000000    -0.612882   
O104     O      0.431810000000     0.391670000000     0.984430000000    -0.627474   
O105     O      0.533630000000     0.451950000000     0.034950000000    -1.46391    
O106     O      0.454930000000     0.462150000000     0.953400000000    -1.47029    
O107     O      0.542150000000     0.454900000000     0.948030000000    -1.05866    
O108     O      0.451580000000     0.455750000000     0.034800000000    -1.6305     
O109     O      0.611740000000     0.548820000000     0.998270000000    -0.56753    
O110     O      0.390160000000     0.563440000000     0.002950000000    -0.607623   
O111     O      0.558470000000     0.502500000000     0.887210000000    -0.571434   
O112     O      0.553020000000     0.480790000000     0.107580000000    -0.610824   
O113     O      0.436480000000     0.496550000000     0.105280000000    -0.623811   
O114     O      0.440420000000     0.504420000000     0.885310000000    -0.578225   
O115     O      0.504480000000     0.611560000000     0.944300000000    -0.568349   
O116     O      0.503640000000     0.604130000000     0.062260000000    -0.582552   
O117     O      0.502990000000     0.562590000000     0.889830000000    -0.568633   
O118     O      0.490890000000     0.550060000000     0.109980000000    -0.613437   
O119     O      0.609130000000     0.496130000000     0.939510000000    -0.559655   
O120     O      0.387770000000     0.508000000000     0.935930000000    -0.617615   
O121     O      0.386060000000     0.502830000000     0.052740000000    -0.630999   
O122     O      0.605800000000     0.481930000000     0.057060000000    -0.568388   
O123     O      0.563470000000     0.603970000000     0.999090000000    -0.577494   
O124     O      0.445290000000     0.611300000000     0.009420000000    -0.569477   
O125     O      0.458670000000     0.537920000000     0.038480000000    -1.47493    
O126     O      0.540510000000     0.537000000000     0.959620000000    -1.37861    
O127     O      0.459770000000     0.549640000000     0.952340000000    -1.07341    
O128     O      0.546350000000     0.538330000000     0.042070000000    -1.05553    
S1       S      0.561430000000     0.095930000000     0.312060000000    -0.032532   
S2       S      0.416340000000     0.867570000000     0.352170000000    -0.0140722  
S3       S      0.547540000000     0.901860000000     0.681080000000    -0.0102686  
S4       S      0.427710000000     0.395930000000     0.808170000000    -0.0207541  
S5       S      0.903090000000     0.312540000000     0.423240000000    -0.0156024  
S6       S      0.807850000000     0.591410000000     0.444600000000    -0.010264   
S7       S      0.181960000000     0.408740000000     0.433580000000    -0.0304903  
S8       S      0.093530000000     0.689550000000     0.431890000000    -0.0157385  
S9       S      0.882780000000     0.541950000000     0.316150000000    -0.0132592  
S10      S      0.171640000000     0.575160000000     0.379580000000    -0.0120912  
S11      S      0.095210000000     0.535550000000     0.685610000000    -0.0100135  
S12      S      0.894510000000     0.432330000000     0.676650000000    -0.0158416  
S13      S      0.615510000000     0.667590000000     0.936430000000    -0.0125967  
S14      S      0.873300000000     0.164140000000     0.076040000000    -0.0148627  
S15      S      0.172290000000     0.117450000000     0.047610000000    -0.0243705  
S16      S      0.887460000000     0.051420000000     0.823640000000    -0.0101573  
S17      S      0.103200000000     0.950770000000     0.815640000000    -0.0116714  
S18      S      0.108270000000     0.059180000000     0.172350000000    -0.0300119  
S19      S      0.606280000000     0.923050000000     0.320430000000    -0.0126102  
S20      S      0.075700000000     0.385990000000     0.670620000000    -0.018823   
S21      S      0.931500000000     0.889360000000     0.824230000000    -0.0129697  
S22      S      0.063960000000     0.325500000000     0.381800000000    -0.0296172  


