data_structure

_audit_creation_method RASPA-1.0
_audit_creation_date 2023-5-25
_audit_author_name 'Poobodin Mano'

_cell_length_a    32.5986
_cell_length_b    32.6845
_cell_length_c    32.5946
_cell_angle_alpha 90
_cell_angle_beta  90
_cell_angle_gamma 90
_cell_volume      34728.5

_symmetry_cell_setting          triclinic
_symmetry_space_group_name_Hall 'P 1'
_symmetry_space_group_name_H-M  'P 1'
_symmetry_Int_Tables_number     1

_symmetry_equiv_pos_as_xyz 'x,y,z'

loop_
_atom_site_label
_atom_site_type_symbol
_atom_site_fract_x
_atom_site_fract_y
_atom_site_fract_z
_atom_site_charge
C1       C      0.992250000000     0.092140000000     0.098800000000     0.498621   
C2       C      0.003060000000     0.896690000000     0.095990000000     0.502265   
C3       C      0.896790000000     0.996730000000     0.094970000000     0.505903   
C4       C      0.093120000000     0.991060000000     0.099020000000     0.50394    
C5       C      0.001860000000     0.899740000000     0.898460000000     0.497058   
C6       C      0.000810000000     0.096760000000     0.902530000000     0.515151   
C7       C      0.900940000000     0.895790000000     0.993800000000     0.486537   
C8       C      0.098070000000     0.900130000000     0.004280000000     0.505487   
C9       C      0.093590000000     0.095860000000     0.998910000000     0.500349   
C10      C      0.897430000000     0.091970000000     0.003550000000     0.510436   
C11      C      0.901560000000     0.991230000000     0.897750000000     0.488704   
C12      C      0.098390000000     0.007600000000     0.902850000000     0.499948   
C13      C      0.991740000000     0.398250000000     0.401310000000     0.497719   
C14      C      0.008480000000     0.594250000000     0.400010000000     0.506207   
C15      C      0.901740000000     0.491550000000     0.397200000000     0.50798    
C16      C      0.097120000000     0.498440000000     0.403070000000     0.508553   
C17      C      0.992520000000     0.595610000000     0.596170000000     0.495037   
C18      C      0.002640000000     0.399010000000     0.597720000000     0.5096     
C19      C      0.897860000000     0.594680000000     0.498850000000     0.494768   
C20      C      0.095810000000     0.594180000000     0.497710000000     0.512914   
C21      C      0.093900000000     0.398200000000     0.502510000000     0.506368   
C22      C      0.897940000000     0.398230000000     0.494500000000     0.502102   
C23      C      0.895710000000     0.503050000000     0.594150000000     0.495381   
C24      C      0.092650000000     0.491190000000     0.599300000000     0.513638   
C25      C      0.592780000000     0.998650000000     0.398380000000     0.498545   
C26      C      0.396800000000     0.006660000000     0.401620000000     0.502607   
C27      C      0.499890000000     0.901810000000     0.395990000000     0.509581   
C28      C      0.492630000000     0.096550000000     0.403200000000     0.510158   
C29      C      0.400250000000     0.987850000000     0.598370000000     0.493759   
C30      C      0.597540000000     0.002600000000     0.594470000000     0.512483   
C31      C      0.399570000000     0.897050000000     0.497080000000     0.494604   
C32      C      0.397110000000     0.093820000000     0.499320000000     0.503583   
C33      C      0.593450000000     0.095330000000     0.502030000000     0.507353   
C34      C      0.596690000000     0.899990000000     0.485310000000     0.500529   
C35      C      0.499920000000     0.894790000000     0.593020000000     0.495193   
C36      C      0.500390000000     0.091560000000     0.599750000000     0.506115   
C37      C      0.396140000000     0.400770000000     0.998000000000     0.506291   
C38      C      0.592970000000     0.398200000000     0.002450000000     0.518552   
C39      C      0.486780000000     0.394360000000     0.903430000000     0.512981   
C40      C      0.501610000000     0.403210000000     0.098510000000     0.503778   
C41      C      0.595130000000     0.593550000000     0.985720000000     0.494374   
C42      C      0.398410000000     0.595750000000     0.005860000000     0.512739   
C43      C      0.590560000000     0.493150000000     0.895240000000     0.500905   
C44      C      0.596870000000     0.495460000000     0.092050000000     0.516665   
C45      C      0.401280000000     0.503580000000     0.098580000000     0.501064   
C46      C      0.393540000000     0.484710000000     0.903460000000     0.508058   
C47      C      0.492130000000     0.591270000000     0.894990000000     0.501551   
C48      C      0.497390000000     0.599000000000     0.091940000000     0.506197   
C49      C      0.471850000000     0.192610000000     0.345190000000    -0.03812    
C50      C      0.519540000000     0.355220000000     0.202050000000    -0.0364591  
C51      C      0.488090000000     0.333170000000     0.121120000000     0.0111438  
C52      C      0.530310000000     0.382300000000     0.164990000000     0.00742963 
C53      C      0.504540000000     0.241200000000     0.211730000000    -0.0533044  
C54      C      0.507080000000     0.262730000000     0.294330000000    -0.0526419  
C55      C      0.506340000000     0.282880000000     0.222120000000     0.0596946  
C56      C      0.475170000000     0.312700000000     0.161000000000    -0.0376133  
C57      C      0.503890000000     0.221090000000     0.283860000000     0.0595664  
C58      C      0.511490000000     0.147810000000     0.301840000000    -0.0582986  
C59      C      0.501560000000     0.210990000000     0.241750000000    -0.0537719  
C60      C      0.521140000000     0.118620000000     0.337410000000     0.100955   
C61      C      0.482430000000     0.168550000000     0.384040000000     0.0141062  
C62      C      0.506850000000     0.293250000000     0.264230000000    -0.0547008  
C63      C      0.605250000000     0.123090000000     0.358460000000     0.0289006  
C64      C      0.507690000000     0.800670000000     0.342230000000    -0.0373603  
C65      C      0.497150000000     0.703910000000     0.139000000000    -0.0357473  
C66      C      0.505530000000     0.618580000000     0.164260000000     0.0103995  
C67      C      0.509410000000     0.671830000000     0.107020000000     0.00824359 
C68      C      0.541070000000     0.740470000000     0.228600000000    -0.0541982  
C69      C      0.463080000000     0.767920000000     0.251410000000    -0.0534069  
C70      C      0.506280000000     0.723670000000     0.209820000000     0.0612617  
C71      C      0.492310000000     0.653140000000     0.192790000000    -0.036269   
C72      C      0.497810000000     0.784340000000     0.270560000000     0.0615278  
C73      C      0.509520000000     0.854530000000     0.291510000000    -0.0595657  
C74      C      0.537010000000     0.770650000000     0.258710000000    -0.0565062  
C75      C      0.494420000000     0.886940000000     0.322050000000     0.105785   
C76      C      0.492890000000     0.829620000000     0.375920000000     0.0126615  
C77      C      0.467120000000     0.737880000000     0.221230000000    -0.0564193  
C78      C      0.411070000000     0.905740000000     0.306770000000     0.0342083  
C79      C      0.497780000000     0.638110000000     0.790730000000    -0.0370375  
C80      C      0.494580000000     0.840940000000     0.693980000000    -0.0356637  
C81      C      0.507990000000     0.821320000000     0.607700000000     0.00818331 
C82      C      0.509930000000     0.874420000000     0.665090000000     0.00791065 
C83      C      0.535270000000     0.749720000000     0.728090000000    -0.0542517  
C84      C      0.455630000000     0.727820000000     0.751250000000    -0.053552   
C85      C      0.501700000000     0.769220000000     0.709810000000     0.0612548  
C86      C      0.492340000000     0.790720000000     0.639450000000    -0.0357928  
C87      C      0.489210000000     0.708530000000     0.769740000000     0.0615533  
C88      C      0.497340000000     0.692210000000     0.841460000000    -0.0591931  
C89      C      0.529230000000     0.719610000000     0.757860000000    -0.05653    
C90      C      0.482210000000     0.663430000000     0.875370000000     0.104948   
C91      C      0.482330000000     0.606430000000     0.821550000000     0.0122063  
C92      C      0.461670000000     0.757960000000     0.721500000000    -0.0564369  
C93      C      0.397930000000     0.676860000000     0.891190000000     0.0346978  
C94      C      0.475460000000     0.340090000000     0.802120000000    -0.0371747  
C95      C      0.503200000000     0.139380000000     0.704780000000    -0.0357563  
C96      C      0.493270000000     0.163720000000     0.619080000000     0.011038   
C97      C      0.492320000000     0.106580000000     0.673130000000     0.00847794 
C98      C      0.526540000000     0.223570000000     0.738880000000    -0.0561158  
C99      C      0.453560000000     0.254930000000     0.771390000000    -0.0567865  
C100     C      0.488550000000     0.209110000000     0.724320000000     0.0611696  
C101     C      0.504640000000     0.192900000000     0.653790000000    -0.0367034  
C102     C      0.491550000000     0.269870000000     0.785400000000     0.0621073  
C103     C      0.477800000000     0.289480000000     0.855770000000    -0.0595205  
C104     C      0.527870000000     0.253780000000     0.769120000000    -0.0533885  
C105     C      0.491160000000     0.320540000000     0.888470000000     0.107244   
C106     C      0.488020000000     0.374760000000     0.830880000000     0.0124456  
C107     C      0.452220000000     0.224830000000     0.740980000000    -0.0539373  
C108     C      0.574320000000     0.306360000000     0.908750000000     0.0478874  
C109     C      0.696990000000     0.145910000000     0.506070000000    -0.0375562  
C110     C      0.794260000000     0.348100000000     0.490160000000    -0.0359459  
C111     C      0.880370000000     0.325330000000     0.499670000000     0.0100089  
C112     C      0.825030000000     0.381110000000     0.502580000000     0.00828625 
C113     C      0.760870000000     0.259020000000     0.538290000000    -0.0540053  
C114     C      0.729650000000     0.235690000000     0.461910000000    -0.0538451  
C115     C      0.776030000000     0.277490000000     0.502570000000     0.0607432  
C116     C      0.846300000000     0.295690000000     0.487250000000    -0.0366156  
C117     C      0.714370000000     0.217370000000     0.497610000000     0.0618414  
C118     C      0.644740000000     0.197350000000     0.515160000000    -0.0590913  
C119     C      0.730330000000     0.229080000000     0.535960000000    -0.0569483  
C120     C      0.610270000000     0.168980000000     0.500460000000     0.104951   
C121     C      0.665920000000     0.113730000000     0.492080000000     0.0131556  
C122     C      0.760290000000     0.265450000000     0.464210000000    -0.0563467  
C123     C      0.587770000000     0.192630000000     0.420110000000     0.0406001  
C124     C      0.796450000000     0.646010000000     0.484500000000    -0.0370966  
C125     C      0.698970000000     0.849860000000     0.489350000000    -0.0365182  
C126     C      0.614740000000     0.828410000000     0.468460000000     0.00736525 
C127     C      0.669760000000     0.883000000000     0.473400000000     0.00872625 
C128     C      0.740230000000     0.761400000000     0.448220000000    -0.0542309  
C129     C      0.754800000000     0.734420000000     0.528300000000    -0.0537455  
C130     C      0.718100000000     0.778760000000     0.480750000000     0.0602442  
C131     C      0.646270000000     0.797670000000     0.484600000000    -0.0359446  
C132     C      0.776620000000     0.716800000000     0.495750000000     0.0609766  
C133     C      0.848600000000     0.697570000000     0.495990000000    -0.0582127  
C134     C      0.769370000000     0.730790000000     0.455530000000    -0.056693   
C135     C      0.878500000000     0.666280000000     0.514520000000     0.102759   
C136     C      0.824070000000     0.611960000000     0.501390000000     0.011892   
C137     C      0.725870000000     0.765190000000     0.521040000000    -0.0564007  
C138     C      0.874180000000     0.670830000000     0.601100000000     0.0359607  
C139     C      0.143800000000     0.295020000000     0.509550000000    -0.0379349  
C140     C      0.345380000000     0.196080000000     0.492570000000    -0.0365015  
C141     C      0.323950000000     0.110610000000     0.507340000000     0.00781459 
C142     C      0.378980000000     0.166520000000     0.506330000000     0.00996421 
C143     C      0.257800000000     0.232580000000     0.539880000000    -0.0543438  
C144     C      0.231040000000     0.257110000000     0.462180000000    -0.053673   
C145     C      0.274620000000     0.214250000000     0.504870000000     0.0608977  
C146     C      0.293430000000     0.143400000000     0.493600000000    -0.035818   
C147     C      0.214280000000     0.275490000000     0.497200000000     0.0610664  
C148     C      0.196720000000     0.346740000000     0.508090000000    -0.0585138  
C149     C      0.227860000000     0.262970000000     0.536230000000    -0.0565652  
C150     C      0.166840000000     0.380170000000     0.493880000000     0.1026     
C151     C      0.110740000000     0.325150000000     0.495630000000     0.0132781  
C152     C      0.260970000000     0.226730000000     0.465830000000    -0.0566397  
C153     C      0.178680000000     0.396860000000     0.409520000000     0.0238617  
C154     C      0.147180000000     0.696050000000     0.487800000000    -0.0376275  
C155     C      0.349590000000     0.794200000000     0.503790000000    -0.0358776  
C156     C      0.326940000000     0.879040000000     0.487540000000     0.00819717 
C157     C      0.382670000000     0.824040000000     0.489310000000     0.00810018 
C158     C      0.262310000000     0.755520000000     0.458180000000    -0.0540544  
C159     C      0.234200000000     0.734810000000     0.536530000000    -0.0535778  
C160     C      0.278870000000     0.775140000000     0.492590000000     0.061239   
C161     C      0.296920000000     0.846270000000     0.502080000000    -0.0358195  
C162     C      0.217360000000     0.715480000000     0.502100000000     0.0617145  
C163     C      0.199280000000     0.643990000000     0.496120000000    -0.05946    
C164     C      0.231880000000     0.725790000000     0.462760000000    -0.0565884  
C165     C      0.168070000000     0.612170000000     0.511050000000     0.106529   
C166     C      0.113070000000     0.667330000000     0.502090000000     0.0134127  
C167     C      0.264800000000     0.764360000000     0.531970000000    -0.0565007  
C168     C      0.173640000000     0.604670000000     0.597360000000     0.0429097  
C169     C      0.689260000000     0.465170000000     0.149890000000    -0.0376453  
C170     C      0.853970000000     0.503250000000     0.293420000000    -0.0362865  
C171     C      0.831700000000     0.475360000000     0.375620000000     0.0104233  
C172     C      0.880560000000     0.516070000000     0.329800000000     0.00962237 
C173     C      0.739670000000     0.492120000000     0.283920000000    -0.0533507  
C174     C      0.762470000000     0.491950000000     0.201550000000    -0.0529751  
C175     C      0.781540000000     0.490890000000     0.273880000000     0.0601472  
C176     C      0.810570000000     0.461360000000     0.336320000000    -0.0364227  
C177     C      0.720610000000     0.493220000000     0.211630000000     0.060461   
C178     C      0.649210000000     0.510910000000     0.192400000000    -0.0593637  
C179     C      0.709610000000     0.491620000000     0.253520000000    -0.0542453  
C180     C      0.622990000000     0.524790000000     0.155940000000     0.105476   
C181     C      0.667860000000     0.479330000000     0.110730000000     0.0139626  
C182     C      0.792450000000     0.489220000000     0.231950000000    -0.0545976  
C183     C      0.645170000000     0.604970000000     0.131790000000     0.0391057  
C184     C      0.151800000000     0.487010000000     0.302180000000    -0.0377184  
C185     C      0.352900000000     0.513920000000     0.202870000000    -0.0366885  
C186     C      0.329080000000     0.495440000000     0.118510000000     0.00954869 
C187     C      0.386130000000     0.500610000000     0.172490000000     0.00934902 
C188     C      0.268780000000     0.463800000000     0.243740000000    -0.0542194  
C189     C      0.236350000000     0.540240000000     0.264550000000    -0.0534495  
C190     C      0.283240000000     0.498940000000     0.223830000000     0.0606365  
C191     C      0.299320000000     0.509040000000     0.152040000000    -0.0367504  
C192     C      0.221460000000     0.505030000000     0.284020000000     0.061423   
C193     C      0.202170000000     0.497370000000     0.355390000000    -0.0602239  
C194     C      0.238240000000     0.466690000000     0.273710000000    -0.05666    
C195     C      0.169910000000     0.511110000000     0.386820000000     0.106947   
C196     C      0.116230000000     0.499430000000     0.330110000000     0.0120783  
C197     C      0.267080000000     0.537380000000     0.234770000000    -0.0563043  
C198     C      0.174510000000     0.596790000000     0.398030000000     0.0398238  
C199     C      0.192850000000     0.473890000000     0.653020000000    -0.0376354  
C200     C      0.290200000000     0.484810000000     0.856160000000    -0.0368638  
C201     C      0.374160000000     0.464640000000     0.833090000000     0.00898193 
C202     C      0.320470000000     0.470570000000     0.889020000000     0.0101684  
C203     C      0.249010000000     0.440210000000     0.768830000000    -0.0543584  
C204     C      0.231410000000     0.519270000000     0.741150000000    -0.0535564  
C205     C      0.269850000000     0.473660000000     0.785760000000     0.0612408  
C206     C      0.341740000000     0.479150000000     0.802610000000    -0.0362781  
C207     C      0.210870000000     0.485820000000     0.723950000000     0.0618414  
C208     C      0.139520000000     0.481520000000     0.703900000000    -0.0595871  
C209     C      0.219650000000     0.446110000000     0.738180000000    -0.0567341  
C210     C      0.108810000000     0.498670000000     0.672710000000     0.105837   
C211     C      0.165550000000     0.490160000000     0.618600000000     0.0136252  
C212     C      0.260660000000     0.513400000000     0.771840000000    -0.0563933  
C213     C      0.099810000000     0.584110000000     0.683530000000     0.0403118  
C214     C      0.691700000000     0.503570000000     0.842780000000    -0.0369004  
C215     C      0.791830000000     0.500230000000     0.641220000000    -0.0357382  
C216     C      0.876130000000     0.516970000000     0.665970000000     0.00776771 
C217     C      0.822600000000     0.515550000000     0.609340000000     0.007759   
C218     C      0.750190000000     0.541620000000     0.729600000000    -0.0541544  
C219     C      0.730130000000     0.461860000000     0.753290000000    -0.0536619  
C220     C      0.770840000000     0.508480000000     0.711780000000     0.0610174  
C221     C      0.842890000000     0.501710000000     0.695310000000    -0.0357335  
C222     C      0.709780000000     0.494980000000     0.771390000000     0.0617599  
C223     C      0.638210000000     0.500300000000     0.791380000000    -0.0587865  
C224     C      0.719830000000     0.535050000000     0.759170000000    -0.0567663  
C225     C      0.606960000000     0.482610000000     0.821860000000     0.104711   
C226     C      0.663420000000     0.486690000000     0.876120000000     0.0119574  
C227     C      0.760380000000     0.468400000000     0.723680000000    -0.0563894  
C228     C      0.600550000000     0.397230000000     0.809130000000     0.0407648  
C229     C      0.698590000000     0.642230000000     0.989770000000    -0.0447395  
C230     C      0.798810000000     0.843890000000     0.982970000000    -0.033532   
C231     C      0.884160000000     0.822420000000     0.999430000000    -0.000947333
C232     C      0.827940000000     0.876960000000     0.998940000000    -0.00057116 
C233     C      0.760430000000     0.754960000000     0.025460000000    -0.0481176  
C234     C      0.739010000000     0.730550000000     0.946090000000    -0.0526688  
C235     C      0.780350000000     0.772730000000     0.991780000000     0.0546888  
C236     C      0.851810000000     0.792260000000     0.983620000000    -0.0334815  
C237     C      0.719080000000     0.712790000000     0.979780000000     0.054359   
C238     C      0.647000000000     0.695450000000     0.986670000000    -0.0660284  
C239     C      0.730040000000     0.725270000000     0.019670000000    -0.0502936  
C240     C      0.613940000000     0.665540000000     0.971360000000     0.104964   
C241     C      0.668410000000     0.609640000000     0.974670000000     0.0135763  
C242     C      0.769360000000     0.760290000000     0.951890000000    -0.0559702  
C243     C      0.602820000000     0.674780000000     0.885800000000     0.0329028  
C244     C      0.651030000000     0.304970000000     0.032680000000    -0.0356002  
C245     C      0.794950000000     0.142010000000     0.988920000000    -0.0464072  
C246     C      0.875690000000     0.161040000000     0.022720000000     0.0187809  
C247     C      0.831710000000     0.115640000000     0.976540000000     0.00593156 
C248     C      0.785880000000     0.255120000000     0.008490000000    -0.0529374  
C249     C      0.703410000000     0.233780000000     0.001980000000    -0.0448881  
C250     C      0.775400000000     0.213530000000     0.005430000000     0.0619129  
C251     C      0.835930000000     0.181680000000     0.036050000000    -0.038278   
C252     C      0.713940000000     0.275320000000     0.005230000000     0.0626974  
C253     C      0.696360000000     0.348220000000     0.993530000000    -0.0663104  
C254     C      0.755790000000     0.285410000000     0.010120000000    -0.0535422  
C255     C      0.661130000000     0.376070000000     0.979590000000     0.103038   
C256     C      0.612660000000     0.327390000000     0.017990000000     0.0209142  
C257     C      0.733310000000     0.203250000000     0.003580000000    -0.0562176  
C258     C      0.647040000000     0.365970000000     0.894540000000     0.0478523  
C259     C      0.296950000000     0.647410000000     0.005860000000    -0.0305878  
C260     C      0.201880000000     0.850830000000     0.013640000000    -0.0231992  
C261     C      0.116090000000     0.827350000000     0.002470000000     0.0141508  
C262     C      0.171340000000     0.883290000000     0.999190000000    -0.00803563 
C263     C      0.237850000000     0.760940000000     0.971450000000    -0.0616725  
C264     C      0.262420000000     0.737710000000     0.050300000000    -0.0535449  
C265     C      0.220140000000     0.779780000000     0.005700000000     0.0723463  
C266     C      0.149600000000     0.798650000000     0.017710000000    -0.032103   
C267     C      0.279810000000     0.718580000000     0.016060000000     0.0677978  
C268     C      0.350650000000     0.698820000000     0.007070000000    -0.0518119  
C269     C      0.267580000000     0.730620000000     0.976440000000    -0.0614715  
C270     C      0.382780000000     0.667910000000     0.021750000000     0.103877   
C271     C      0.326390000000     0.613920000000     0.020060000000     0.0134652  
C272     C      0.232860000000     0.768180000000     0.045310000000    -0.0590843  
C273     C      0.394070000000     0.675400000000     0.107450000000     0.0359076  
C274     C      0.293090000000     0.350990000000     0.005730000000    -0.0195154  
C275     C      0.195640000000     0.148460000000     0.990620000000    -0.0572857  
C276     C      0.109370000000     0.169390000000     0.002500000000     0.026538   
C277     C      0.166240000000     0.115220000000     0.005620000000     0.0297712  
C278     C      0.231870000000     0.236640000000     0.034570000000    -0.0465285  
C279     C      0.254060000000     0.263950000000     0.956370000000    -0.0540662  
C280     C      0.212760000000     0.219760000000     0.999980000000     0.0495972  
C281     C      0.142190000000     0.199480000000     0.987960000000    -0.0494122  
C282     C      0.272860000000     0.281110000000     0.990980000000     0.0556839  
C283     C      0.344820000000     0.298570000000     0.996830000000    -0.0669317  
C284     C      0.261830000000     0.266920000000     0.030240000000    -0.0519246  
C285     C      0.376840000000     0.329550000000     0.981800000000     0.106573   
C286     C      0.322480000000     0.384820000000     0.991920000000    -0.00182341 
C287     C      0.224380000000     0.233390000000     0.960680000000    -0.0537338  
C288     C      0.381790000000     0.327050000000     0.895190000000     0.0357859  
C289     C      0.701000000000     0.998140000000     0.642760000000    -0.0566963  
C290     C      0.799840000000     0.996250000000     0.845680000000    -0.0432228  
C291     C      0.885510000000     0.982010000000     0.824220000000     0.00896136 
C292     C      0.829260000000     0.979710000000     0.878280000000     0.00906614 
C293     C      0.762570000000     0.957840000000     0.754330000000    -0.0485753  
C294     C      0.740920000000     0.037940000000     0.733400000000    -0.0592229  
C295     C      0.782100000000     0.990680000000     0.773870000000     0.0505241  
C296     C      0.853330000000     0.998310000000     0.794150000000    -0.0432422  
C297     C      0.721360000000     0.005100000000     0.713890000000     0.0703049  
C298     C      0.649370000000     0.998910000000     0.696280000000    -0.075597   
C299     C      0.732420000000     0.964840000000     0.724620000000    -0.0668387  
C300     C      0.616340000000     0.015280000000     0.666930000000     0.11222    
C301     C      0.670670000000     0.014310000000     0.610760000000     0.0299843  
C302     C      0.771010000000     0.030940000000     0.763170000000    -0.0456645  
C303     C      0.606010000000     0.100400000000     0.678690000000     0.0359443  
C304     C      0.298920000000     0.996530000000     0.650400000000    -0.0443197  
C305     C      0.201440000000     0.002900000000     0.854430000000    -0.0290051  
C306     C      0.117260000000     0.021280000000     0.830590000000     0.00532153 
C307     C      0.171490000000     0.020100000000     0.886320000000     0.00700284 
C308     C      0.242210000000     0.039870000000     0.763170000000    -0.0603161  
C309     C      0.260190000000     0.958870000000     0.742240000000    -0.0473009  
C310     C      0.221410000000     0.007950000000     0.782970000000     0.0708153  
C311     C      0.149450000000     0.003920000000     0.801180000000    -0.0282869  
C312     C      0.280790000000     0.990800000000     0.722260000000     0.050651   
C313     C      0.352370000000     0.994000000000     0.702010000000    -0.065876   
C314     C      0.271680000000     0.031510000000     0.733110000000    -0.045398   
C315     C      0.383640000000     0.976080000000     0.671590000000     0.104885   
C316     C      0.327330000000     0.978850000000     0.617440000000     0.0129888  
C317     C      0.230770000000     0.967220000000     0.772350000000    -0.0673837  
C318     C      0.391370000000     0.890810000000     0.684170000000     0.0337076  
C319     C      0.141380000000     0.000320000000     0.202260000000    -0.0218849  
C320     C      0.344880000000     0.003720000000     0.300240000000    -0.0288144  
C321     C      0.323680000000     0.019230000000     0.385720000000     0.00560535 
C322     C      0.377550000000     0.020410000000     0.329540000000     0.00714663 
C323     C      0.253580000000     0.041120000000     0.262210000000    -0.0602519  
C324     C      0.231960000000     0.960510000000     0.243260000000    -0.0474716  
C325     C      0.273020000000     0.008770000000     0.282650000000     0.0710191  
C326     C      0.293380000000     0.002650000000     0.353940000000    -0.0282967  
C327     C      0.212450000000     0.992860000000     0.222900000000     0.0512255  
C328     C      0.194840000000     0.995920000000     0.150750000000    -0.0667815  
C329     C      0.223610000000     0.033380000000     0.232490000000    -0.0457274  
C330     C      0.165270000000     0.978170000000     0.118690000000     0.106005   
C331     C      0.109060000000     0.983250000000     0.172750000000     0.00470587 
C332     C      0.262050000000     0.968240000000     0.272830000000    -0.0672847  
C333     C      0.175160000000     0.892320000000     0.114170000000     0.0353563  
C334     C      0.792780000000     0.006400000000     0.142980000000    -0.0179709  
C335     C      0.694650000000     0.994560000000     0.345770000000    -0.05505    
C336     C      0.608570000000     0.007630000000     0.325080000000     0.0241964  
C337     C      0.665150000000     0.008680000000     0.379330000000     0.0251099  
C338     C      0.730100000000     0.039030000000     0.256580000000    -0.0596799  
C339     C      0.753780000000     0.960750000000     0.231330000000    -0.0482968  
C340     C      0.711730000000     0.004620000000     0.274440000000     0.0705732  
C341     C      0.641100000000     0.993590000000     0.294430000000    -0.0546375  
C342     C      0.772170000000     0.995140000000     0.213520000000     0.0524645  
C343     C      0.843990000000     0.003610000000     0.196570000000    -0.0408631  
C344     C      0.760170000000     0.034470000000     0.226370000000    -0.0465403  
C345     C      0.877060000000     0.987340000000     0.167410000000     0.0915655  
C346     C      0.823050000000     0.991300000000     0.110450000000    -0.00411658 
C347     C      0.723810000000     0.965300000000     0.261590000000    -0.0666389  
C348     C      0.886030000000     0.902070000000     0.179340000000     0.0353154  
C349     C      0.011190000000     0.148760000000     0.800540000000    -0.0242896  
C350     C      0.000770000000     0.350060000000     0.700970000000    -0.0305712  
C351     C      0.017770000000     0.327310000000     0.616140000000     0.00777502 
C352     C      0.014890000000     0.382890000000     0.670670000000     0.0142162  
C353     C      0.972090000000     0.266650000000     0.732060000000    -0.0614301  
C354     C      0.040630000000     0.232670000000     0.770910000000    -0.0593586  
C355     C      0.011720000000     0.279650000000     0.720830000000     0.0666847  
C356     C      0.003560000000     0.297080000000     0.649060000000    -0.029016   
C357     C      0.000990000000     0.219650000000     0.782070000000     0.0727984  
C358     C      0.009500000000     0.200430000000     0.853510000000    -0.03955    
C359     C      0.966920000000     0.236910000000     0.762430000000    -0.0614385  
C360     C      0.993900000000     0.170140000000     0.886020000000     0.0908781  
C361     C      0.995650000000     0.115480000000     0.829580000000    -0.00272451 
C362     C      0.045810000000     0.262450000000     0.740540000000    -0.0541375  
C363     C      0.909590000000     0.183590000000     0.901760000000     0.0374321  
C364     C      0.993940000000     0.850770000000     0.795160000000    -0.0571108  
C365     C      0.996830000000     0.646810000000     0.698770000000    -0.0426343  
C366     C      0.988230000000     0.669000000000     0.612470000000    -0.00909395 
C367     C      0.981180000000     0.614640000000     0.668480000000     0.00880233 
C368     C      0.957730000000     0.738370000000     0.733680000000    -0.048342   
C369     C      0.037090000000     0.759620000000     0.758290000000    -0.0593477  
C370     C      0.991480000000     0.718500000000     0.716050000000     0.0511017  
C371     C      0.003550000000     0.698080000000     0.645740000000    -0.0155407  
C372     C      0.003370000000     0.779740000000     0.775640000000     0.0713953  
C373     C      0.996410000000     0.797980000000     0.847210000000    -0.0781744  
C374     C      0.963480000000     0.768640000000     0.763400000000    -0.0674234  
C375     C      0.013360000000     0.827460000000     0.879610000000     0.118956   
C376     C      0.009710000000     0.883390000000     0.824960000000     0.0287426  
C377     C      0.031340000000     0.729130000000     0.728830000000    -0.0453863  
C378     C      0.099050000000     0.815870000000     0.887000000000     0.0367195  
C379     C      0.004010000000     0.696140000000     0.349260000000    -0.029266   
C380     C      0.015610000000     0.793560000000     0.145630000000    -0.0330402  
C381     C      0.000550000000     0.878490000000     0.169060000000     0.015973   
C382     C      0.000080000000     0.823390000000     0.112940000000     0.0145473  
C383     C      0.972010000000     0.754960000000     0.234090000000    -0.0618762  
C384     C      0.050790000000     0.733840000000     0.260540000000    -0.0535302  
C385     C      0.006160000000     0.774350000000     0.216670000000     0.0719846  
C386     C      0.016050000000     0.845420000000     0.198290000000    -0.033459   
C387     C      0.016630000000     0.714840000000     0.278320000000     0.0675006  
C388     C      0.011280000000     0.643340000000     0.297500000000    -0.0516164  
C389     C      0.977070000000     0.725290000000     0.264570000000    -0.0617308  
C390     C      0.027840000000     0.612340000000     0.328720000000     0.104206   
C391     C      0.018760000000     0.667340000000     0.383280000000     0.0102119  
C392     C      0.045760000000     0.763270000000     0.229860000000    -0.0590379  
C393     C      0.114430000000     0.611810000000     0.323190000000     0.0441512  
C394     C      0.978690000000     0.142060000000     0.201860000000    -0.0362345  
C395     C      0.995540000000     0.345740000000     0.299260000000    -0.0444827  
C396     C      0.977320000000     0.326040000000     0.384590000000     0.0105845  
C397     C      0.981980000000     0.379980000000     0.328410000000     0.00965401 
C398     C      0.948650000000     0.258280000000     0.261540000000    -0.0533063  
C399     C      0.026860000000     0.228920000000     0.242330000000    -0.0477264  
C400     C      0.982950000000     0.274860000000     0.281470000000     0.0535445  
C401     C      0.991180000000     0.294570000000     0.352710000000    -0.0447713  
C402     C      0.992570000000     0.212290000000     0.222470000000     0.0541779  
C403     C      0.987670000000     0.194470000000     0.150340000000    -0.0732124  
C404     C      0.953280000000     0.227320000000     0.232200000000    -0.0560161  
C405     C      0.004560000000     0.164000000000     0.118740000000     0.11852    
C406     C      0.993750000000     0.108300000000     0.172780000000     0.00499014 
C407     C      0.022260000000     0.259940000000     0.271530000000    -0.0502336  
C408     C      0.091090000000     0.170430000000     0.116630000000     0.0279713  
Eu1      Eu     0.995300000000     0.994260000000     0.071350000000     3.45       
Eu2      Eu     0.999110000000     0.923210000000     0.997500000000     2.98926    
Eu3      Eu     0.995560000000     0.068540000000     0.999760000000     3.45492    
Eu4      Eu     0.924480000000     0.994550000000     0.996890000000     3.00821    
Eu5      Eu     0.070340000000     0.997030000000     0.999760000000     3.4622     
Eu6      Eu     0.999320000000     0.997600000000     0.925540000000     2.99182    
Eu7      Eu     0.998050000000     0.496910000000     0.425890000000     3.44461    
Eu8      Eu     0.996910000000     0.569490000000     0.498070000000     3.02632    
Eu9      Eu     0.995630000000     0.424090000000     0.499750000000     3.45285    
Eu10     Eu     0.923560000000     0.496600000000     0.496570000000     3.05406    
Eu11     Eu     0.069250000000     0.496720000000     0.500990000000     3.54587    
Eu12     Eu     0.994800000000     0.497030000000     0.571790000000     3.05973    
Eu13     Eu     0.494890000000     0.998150000000     0.425690000000     3.48077    
Eu14     Eu     0.423640000000     0.995540000000     0.499460000000     3.00485    
Eu15     Eu     0.569510000000     0.996730000000     0.497410000000     3.45099    
Eu16     Eu     0.497850000000     0.923490000000     0.495500000000     3.04632    
Eu17     Eu     0.495110000000     0.068850000000     0.501220000000     3.54989    
Eu18     Eu     0.498360000000     0.993950000000     0.571320000000     3.01748    
Eu19     Eu     0.495270000000     0.424470000000     0.999620000000     3.49612    
Eu20     Eu     0.568450000000     0.495950000000     0.994310000000     3.02887    
Eu21     Eu     0.423040000000     0.498330000000     0.999340000000     3.4618     
Eu22     Eu     0.492790000000     0.493920000000     0.924060000000     3.07849    
Eu23     Eu     0.498880000000     0.500500000000     0.069690000000     3.53952    
Eu24     Eu     0.496290000000     0.569880000000     0.994230000000     3.01192    
H1       H      0.959000000000     0.956310000000     0.064910000000    -0.177576   
H2       H      0.055030000000     0.055160000000     0.060730000000     0.412695   
H3       H      0.959320000000     0.063500000000     0.961600000000    -0.189309   
H4       H      0.067200000000     0.960540000000     0.961320000000    -0.176558   
H5       H      0.960880000000     0.534640000000     0.429460000000    -0.171695   
H6       H      0.056670000000     0.436430000000     0.440450000000     0.412529   
H7       H      0.957900000000     0.429300000000     0.536730000000    -0.17667    
H8       H      0.063430000000     0.533940000000     0.538030000000    -0.191832   
H9       H      0.457480000000     0.960570000000     0.429590000000    -0.171198   
H10      H      0.554460000000     0.058410000000     0.439980000000     0.419478   
H11      H      0.566320000000     0.957930000000     0.533830000000    -0.165216   
H12      H      0.458750000000     0.061870000000     0.538900000000    -0.199722   
H13      H      0.531150000000     0.427370000000     0.960820000000    -0.183822   
H14      H      0.437520000000     0.440380000000     0.060950000000     0.411833   
H15      H      0.426240000000     0.534290000000     0.960010000000    -0.162879   
H16      H      0.536220000000     0.536670000000     0.061380000000    -0.197559   
H17      H      0.508360000000     0.324640000000     0.274510000000     0.0389795  
H18      H      0.465430000000     0.224650000000     0.354590000000     0.0334845  
H19      H      0.536870000000     0.145800000000     0.279010000000     0.0469319  
H20      H      0.512530000000     0.314570000000     0.106290000000     0.0357048  
H21      H      0.507500000000     0.184550000000     0.400590000000     0.0370604  
H22      H      0.546460000000     0.355630000000     0.223040000000     0.0341488  
H23      H      0.464930000000     0.281220000000     0.153300000000     0.0326685  
H24      H      0.529040000000     0.414920000000     0.174600000000     0.0361337  
H25      H      0.516090000000     0.087000000000     0.325870000000     0.0213658  
H26      H      0.510030000000     0.271780000000     0.326150000000     0.0422076  
H27      H      0.455200000000     0.168100000000     0.404640000000     0.0324954  
H28      H      0.505530000000     0.231780000000     0.179900000000     0.04184    
H29      H      0.443310000000     0.180210000000     0.331070000000     0.0389732  
H30      H      0.461240000000     0.333970000000     0.100020000000     0.0247994  
H31      H      0.492800000000     0.368800000000     0.218420000000     0.0349583  
H32      H      0.448420000000     0.328990000000     0.174630000000     0.0364644  
H33      H      0.498870000000     0.179790000000     0.231160000000     0.0393231  
H34      H      0.482870000000     0.137090000000     0.286510000000     0.0412284  
H35      H      0.562610000000     0.375990000000     0.156020000000     0.0320989  
H36      H      0.439750000000     0.725500000000     0.207140000000     0.0411008  
H37      H      0.496050000000     0.769400000000     0.349220000000     0.0353177  
H38      H      0.500330000000     0.863390000000     0.259780000000     0.0467938  
H39      H      0.538410000000     0.611500000000     0.170000000000     0.0352794  
H40      H      0.459620000000     0.824240000000     0.381240000000     0.03588    
H41      H      0.511180000000     0.733660000000     0.130080000000     0.0363844  
H42      H      0.501980000000     0.645170000000     0.224560000000     0.0351048  
H43      H      0.493360000000     0.679160000000     0.077820000000     0.0408712  
H44      H      0.512480000000     0.915280000000     0.316510000000     0.0211221  
H45      H      0.432770000000     0.778290000000     0.260190000000     0.0463562  
H46      H      0.509210000000     0.821540000000     0.404780000000     0.0343739  
H47      H      0.571360000000     0.729860000000     0.220080000000     0.0446975  
H48      H      0.541850000000     0.799550000000     0.342480000000     0.0365475  
H49      H      0.487480000000     0.590840000000     0.172340000000     0.0367001  
H50      H      0.463270000000     0.707820000000     0.138710000000     0.0400708  
H51      H      0.458230000000     0.655610000000     0.192360000000     0.0384087  
H52      H      0.564320000000     0.783010000000     0.272950000000     0.0401741  
H53      H      0.543680000000     0.853570000000     0.292200000000     0.0414037  
H54      H      0.542910000000     0.674460000000     0.101130000000     0.0350654  
H55      H      0.435210000000     0.772650000000     0.707900000000     0.0410164  
H56      H      0.487060000000     0.629020000000     0.759600000000     0.0354175  
H57      H      0.487030000000     0.724050000000     0.848160000000     0.04762    
H58      H      0.541190000000     0.815630000000     0.602320000000     0.0328451  
H59      H      0.448970000000     0.601480000000     0.816430000000     0.0364466  
H60      H      0.506410000000     0.847530000000     0.725340000000     0.0355097  
H61      H      0.502270000000     0.759530000000     0.629990000000     0.0346507  
H62      H      0.494690000000     0.903600000000     0.673800000000     0.0392631  
H63      H      0.499250000000     0.671550000000     0.903800000000     0.0247555  
H64      H      0.424710000000     0.719690000000     0.760260000000     0.0461622  
H65      H      0.498170000000     0.576970000000     0.815190000000     0.0348538  
H66      H      0.566210000000     0.758160000000     0.719420000000     0.0438592  
H67      H      0.531960000000     0.637950000000     0.790650000000     0.0374038  
H68      H      0.491670000000     0.815410000000     0.578330000000     0.0358422  
H69      H      0.460470000000     0.841790000000     0.695150000000     0.0397514  
H70      H      0.458170000000     0.791380000000     0.639820000000     0.0380131  
H71      H      0.555710000000     0.705300000000     0.771840000000     0.0404725  
H72      H      0.531490000000     0.692460000000     0.841600000000     0.0437963  
H73      H      0.543460000000     0.878520000000     0.669870000000     0.0326777  
H74      H      0.422800000000     0.213870000000     0.730130000000     0.0440795  
H75      H      0.485960000000     0.347940000000     0.770570000000     0.0361441  
H76      H      0.488880000000     0.258330000000     0.864300000000     0.0478256  
H77      H      0.460520000000     0.168620000000     0.610830000000     0.0322723  
H78      H      0.520050000000     0.383820000000     0.823720000000     0.0407221  
H79      H      0.490340000000     0.129890000000     0.734960000000     0.0360954  
H80      H      0.493210000000     0.223990000000     0.645740000000     0.0351658  
H81      H      0.510620000000     0.078680000000     0.680010000000     0.0405227  
H82      H      0.472820000000     0.314630000000     0.916620000000     0.0250475  
H83      H      0.425090000000     0.266770000000     0.783680000000     0.0405192  
H84      H      0.468270000000     0.401720000000     0.824190000000     0.0350147  
H85      H      0.555050000000     0.211790000000     0.726640000000     0.0411054  
H86      H      0.441380000000     0.337630000000     0.801530000000     0.0364407  
H87      H      0.511950000000     0.171880000000     0.591700000000     0.036248   
H88      H      0.537140000000     0.141300000000     0.708000000000     0.0393102  
H89      H      0.538680000000     0.194480000000     0.656480000000     0.0379681  
H90      H      0.557280000000     0.264950000000     0.779780000000     0.0473114  
H91      H      0.443710000000     0.287890000000     0.854820000000     0.0431961  
H92      H      0.459430000000     0.098280000000     0.676840000000     0.0344994  
H93      H      0.771630000000     0.279070000000     0.436150000000     0.0401522  
H94      H      0.727070000000     0.138850000000     0.491510000000     0.0352164  
H95      H      0.636250000000     0.229840000000     0.509070000000     0.0468845  
H96      H      0.888680000000     0.319540000000     0.532250000000     0.0315641  
H97      H      0.669100000000     0.109360000000     0.458390000000     0.0301353  
H98      H      0.763720000000     0.356480000000     0.502960000000     0.034832   
H99      H      0.855010000000     0.264470000000     0.497790000000     0.0342087  
H100     H      0.817450000000     0.409590000000     0.485480000000     0.0350385  
H101     H      0.583270000000     0.173980000000     0.520730000000     0.0211603  
H102     H      0.717730000000     0.226780000000     0.432210000000     0.0462963  
H103     H      0.674130000000     0.084180000000     0.506880000000     0.0351368  
H104     H      0.772830000000     0.267880000000     0.567990000000     0.0439091  
H105     H      0.701010000000     0.143990000000     0.539970000000     0.0374971  
H106     H      0.907970000000     0.318470000000     0.480790000000     0.0342826  
H107     H      0.791610000000     0.347440000000     0.456080000000     0.0364394  
H108     H      0.843710000000     0.295000000000     0.453170000000     0.0368251  
H109     H      0.719160000000     0.215150000000     0.563940000000     0.0406645  
H110     H      0.648350000000     0.194070000000     0.548990000000     0.0421003  
H111     H      0.821080000000     0.387860000000     0.535790000000     0.0333904  
H112     H      0.709480000000     0.778210000000     0.546780000000     0.0401664  
H113     H      0.763930000000     0.637490000000     0.490460000000     0.0355331  
H114     H      0.854840000000     0.728390000000     0.509240000000     0.0455845  
H115     H      0.612950000000     0.825410000000     0.434520000000     0.0325981  
H116     H      0.814380000000     0.604810000000     0.533310000000     0.0366297  
H117     H      0.730780000000     0.858190000000     0.480140000000     0.0340286  
H118     H      0.638720000000     0.766970000000     0.471880000000     0.0346762  
H119     H      0.676910000000     0.912090000000     0.489570000000     0.0339532  
H120     H      0.910010000000     0.674790000000     0.504680000000     0.0205391  
H121     H      0.760250000000     0.724190000000     0.559430000000     0.0458466  
H122     H      0.818970000000     0.584020000000     0.482600000000     0.0347186  
H123     H      0.734770000000     0.771620000000     0.417100000000     0.0434942  
H124     H      0.800790000000     0.648230000000     0.450680000000     0.0372617  
H125     H      0.584220000000     0.820000000000     0.481090000000     0.0361088  
H126     H      0.697630000000     0.849160000000     0.523490000000     0.0371907  
H127     H      0.643790000000     0.796030000000     0.518630000000     0.0375764  
H128     H      0.786090000000     0.717970000000     0.429890000000     0.0401034  
H129     H      0.853960000000     0.699650000000     0.462300000000     0.0412921  
H130     H      0.675810000000     0.887860000000     0.440180000000     0.0327375  
H131     H      0.273520000000     0.213100000000     0.438300000000     0.0401054  
H132     H      0.135000000000     0.263890000000     0.498830000000     0.0352641  
H133     H      0.228310000000     0.354140000000     0.497260000000     0.0465896  
H134     H      0.319240000000     0.104450000000     0.540570000000     0.033672   
H135     H      0.103920000000     0.319570000000     0.462670000000     0.0299813  
H136     H      0.353590000000     0.227310000000     0.503480000000     0.0348254  
H137     H      0.262490000000     0.134950000000     0.505340000000     0.0349371  
H138     H      0.407390000000     0.173870000000     0.488910000000     0.0359805  
H139     H      0.174440000000     0.408540000000     0.511130000000     0.0216488  
H140     H      0.220870000000     0.266480000000     0.431980000000     0.0451744  
H141     H      0.082240000000     0.318480000000     0.513180000000     0.0342069  
H142     H      0.268060000000     0.223310000000     0.570080000000     0.0438938  
H143     H      0.145010000000     0.294510000000     0.543710000000     0.0369216  
H144     H      0.316840000000     0.081840000000     0.490530000000     0.0358085  
H145     H      0.344190000000     0.196750000000     0.458410000000     0.0370665  
H146     H      0.292000000000     0.143910000000     0.459460000000     0.0369557  
H147     H      0.215390000000     0.276700000000     0.563750000000     0.0398794  
H148     H      0.197620000000     0.346440000000     0.542260000000     0.041193   
H149     H      0.385610000000     0.171960000000     0.539360000000     0.0319752  
H150     H      0.277300000000     0.778880000000     0.559060000000     0.0408023  
H151     H      0.138270000000     0.727960000000     0.495750000000     0.0357888  
H152     H      0.230010000000     0.637060000000     0.509450000000     0.0476601  
H153     H      0.322410000000     0.884040000000     0.454090000000     0.0334421  
H154     H      0.104990000000     0.674950000000     0.534350000000     0.0372286  
H155     H      0.358120000000     0.762930000000     0.493250000000     0.0350312  
H156     H      0.265840000000     0.854130000000     0.490300000000     0.0346326  
H157     H      0.411440000000     0.817180000000     0.506330000000     0.0356528  
H158     H      0.176550000000     0.582260000000     0.497180000000     0.0250576  
H159     H      0.223490000000     0.726930000000     0.566980000000     0.0463735  
H160     H      0.085450000000     0.673250000000     0.482920000000     0.0354513  
H161     H      0.273000000000     0.763410000000     0.427730000000     0.0445028  
H162     H      0.150100000000     0.693980000000     0.453810000000     0.038257   
H163     H      0.319120000000     0.908160000000     0.503370000000     0.03551    
H164     H      0.348630000000     0.794020000000     0.537950000000     0.0378433  
H165     H      0.295700000000     0.846510000000     0.536230000000     0.0377038  
H166     H      0.219630000000     0.710980000000     0.435710000000     0.04107    
H167     H      0.202370000000     0.641750000000     0.462200000000     0.0441787  
H168     H      0.388800000000     0.818510000000     0.456200000000     0.0341857  
H169     H      0.824020000000     0.487680000000     0.221980000000     0.0389711  
H170     H      0.720420000000     0.454440000000     0.141230000000     0.0334902  
H171     H      0.650430000000     0.536240000000     0.215270000000     0.0463551  
H172     H      0.813150000000     0.500040000000     0.390050000000     0.0344604  
H173     H      0.687130000000     0.502910000000     0.095410000000     0.0387565  
H174     H      0.854770000000     0.528830000000     0.270900000000     0.033893   
H175     H      0.778710000000     0.452370000000     0.344410000000     0.0326929  
H176     H      0.913280000000     0.514950000000     0.320210000000     0.0343675  
H177     H      0.590590000000     0.526260000000     0.166500000000     0.020897   
H178     H      0.772130000000     0.493740000000     0.169820000000     0.0422885  
H179     H      0.664830000000     0.452870000000     0.089430000000     0.0329665  
H180     H      0.730060000000     0.494220000000     0.315650000000     0.0414299  
H181     H      0.672560000000     0.438680000000     0.163470000000     0.0388522  
H182     H      0.833060000000     0.449260000000     0.397530000000     0.0331117  
H183     H      0.867530000000     0.475510000000     0.278900000000     0.0365345  
H184     H      0.826190000000     0.433760000000     0.323710000000     0.0395297  
H185     H      0.678000000000     0.491870000000     0.263490000000     0.0389299  
H186     H      0.633840000000     0.484270000000     0.207220000000     0.0409533  
H187     H      0.873610000000     0.548540000000     0.337330000000     0.0296129  
H188     H      0.277890000000     0.565010000000     0.220020000000     0.0408457  
H189     H      0.143240000000     0.494460000000     0.269960000000     0.0363014  
H190     H      0.232380000000     0.511500000000     0.362960000000     0.0475836  
H191     H      0.325100000000     0.462050000000     0.113240000000     0.0256627  
H192     H      0.105460000000     0.530280000000     0.321010000000     0.0436371  
H193     H      0.362600000000     0.504480000000     0.234230000000     0.0345126  
H194     H      0.268560000000     0.495960000000     0.145060000000     0.0349511  
H195     H      0.413860000000     0.519730000000     0.177790000000     0.0350222  
H196     H      0.177750000000     0.496500000000     0.416610000000     0.0219271  
H197     H      0.223880000000     0.569940000000     0.272350000000     0.0465249  
H198     H      0.090340000000     0.477950000000     0.324580000000     0.0303633  
H199     H      0.281040000000     0.434060000000     0.235740000000     0.0430239  
H200     H      0.156410000000     0.453300000000     0.304270000000     0.0349305  
H201     H      0.320420000000     0.511280000000     0.089570000000     0.0357764  
H202     H      0.350180000000     0.547900000000     0.202520000000     0.0380076  
H203     H      0.296640000000     0.543020000000     0.151540000000     0.0381834  
H204     H      0.227500000000     0.439060000000     0.288530000000     0.0399558  
H205     H      0.206210000000     0.463600000000     0.357590000000     0.0418369  
H206     H      0.394750000000     0.468360000000     0.179160000000     0.0265019  
H207     H      0.276290000000     0.539770000000     0.784450000000     0.0408792  
H208     H      0.225320000000     0.481140000000     0.645320000000     0.0361388  
H209     H      0.132130000000     0.493420000000     0.735100000000     0.047183   
H210     H      0.376270000000     0.430710000000     0.831440000000     0.0335865  
H211     H      0.175100000000     0.521930000000     0.611240000000     0.0388375  
H212     H      0.258790000000     0.475320000000     0.865590000000     0.0348073  
H213     H      0.348720000000     0.465490000000     0.772110000000     0.0349799  
H214     H      0.313670000000     0.487360000000     0.917900000000     0.0344464  
H215     H      0.078550000000     0.484400000000     0.679350000000     0.0217923  
H216     H      0.224800000000     0.549970000000     0.730520000000     0.0466795  
H217     H      0.171130000000     0.471300000000     0.590730000000     0.0367419  
H218     H      0.255790000000     0.409490000000     0.779280000000     0.0439316  
H219     H      0.189750000000     0.439990000000     0.654760000000     0.036761   
H220     H      0.404280000000     0.477250000000     0.823340000000     0.0365999  
H221     H      0.290930000000     0.518840000000     0.854340000000     0.0378536  
H222     H      0.343600000000     0.513060000000     0.799730000000     0.0384292  
H223     H      0.204020000000     0.419790000000     0.725460000000     0.0400166  
H224     H      0.136330000000     0.447600000000     0.705120000000     0.0413745  
H225     H      0.315340000000     0.437460000000     0.894900000000     0.0341667  
H226     H      0.775740000000     0.442260000000     0.710300000000     0.0405568  
H227     H      0.723760000000     0.494500000000     0.850290000000     0.0355645  
H228     H      0.630520000000     0.489950000000     0.759710000000     0.046635   
H229     H      0.879640000000     0.550580000000     0.670000000000     0.0333588  
H230     H      0.670720000000     0.453810000000     0.880970000000     0.0404867  
H231     H      0.760680000000     0.510800000000     0.632060000000     0.0350862  
H232     H      0.849920000000     0.513420000000     0.726600000000     0.034622   
H233     H      0.815780000000     0.500110000000     0.579720000000     0.0363804  
H234     H      0.576670000000     0.496700000000     0.815070000000     0.0209721  
H235     H      0.722650000000     0.430880000000     0.762430000000     0.0465571  
H236     H      0.670520000000     0.503040000000     0.905180000000     0.0367225  
H237     H      0.757860000000     0.572600000000     0.720670000000     0.0442813  
H238     H      0.690060000000     0.537610000000     0.842830000000     0.0375886  
H239     H      0.905670000000     0.502480000000     0.674870000000     0.0357431  
H240     H      0.791860000000     0.466150000000     0.641280000000     0.0378589  
H241     H      0.843770000000     0.467660000000     0.696310000000     0.0376019  
H242     H      0.704480000000     0.561130000000     0.772700000000     0.0405399  
H243     H      0.636000000000     0.534320000000     0.791690000000     0.0418864  
H244     H      0.817890000000     0.548950000000     0.604770000000     0.0347432  
H245     H      0.784100000000     0.773630000000     0.925320000000     0.0397736  
H246     H      0.730000000000     0.633260000000     0.979820000000     0.036145   
H247     H      0.640030000000     0.726840000000     0.975270000000     0.0473515  
H248     H      0.889240000000     0.816640000000     0.032680000000     0.0397164  
H249     H      0.674020000000     0.604060000000     0.941480000000     0.035746   
H250     H      0.767170000000     0.851570000000     0.993260000000     0.0329044  
H251     H      0.860090000000     0.761060000000     0.994510000000     0.0326557  
H252     H      0.820780000000     0.906010000000     0.982660000000     0.0365306  
H253     H      0.584640000000     0.673990000000     0.986620000000     0.020708   
H254     H      0.730880000000     0.721340000000     0.915230000000     0.0450556  
H255     H      0.675190000000     0.580660000000     0.991190000000     0.0347005  
H256     H      0.768430000000     0.764290000000     0.056320000000     0.0445189  
H257     H      0.698110000000     0.643020000000     0.023930000000     0.0443801  
H258     H      0.913570000000     0.815960000000     0.983400000000     0.035932   
H259     H      0.799130000000     0.844050000000     0.948780000000     0.0365479  
H260     H      0.852370000000     0.792030000000     0.949450000000     0.0361578  
H261     H      0.715100000000     0.712150000000     0.046230000000     0.0404855  
H262     H      0.645880000000     0.696580000000     0.020820000000     0.0478812  
H263     H      0.821670000000     0.882030000000     0.032090000000     0.0404938  
H264     H      0.722930000000     0.171920000000     0.001600000000     0.0420999  
H265     H      0.641890000000     0.273160000000     0.040500000000     0.0351744  
H266     H      0.721040000000     0.349140000000     0.969870000000     0.0468463  
H267     H      0.891530000000     0.180840000000     0.999900000000     0.0307202  
H268     H      0.598160000000     0.309430000000     0.992920000000     0.0333418  
H269     H      0.774050000000     0.143270000000     0.961950000000     0.0355823  
H270     H      0.843920000000     0.212590000000     0.047730000000     0.0337008  
H271     H      0.821670000000     0.083150000000     0.975120000000     0.0361582  
H272     H      0.671680000000     0.408160000000     0.983740000000     0.0213648  
H273     H      0.671730000000     0.224850000000     0.997530000000     0.036746   
H274     H      0.590320000000     0.329010000000     0.043770000000     0.0339425  
H275     H      0.817750000000     0.264420000000     0.009010000000     0.0429299  
H276     H      0.663010000000     0.319440000000     0.061220000000     0.0385271  
H277     H      0.896230000000     0.157860000000     0.049830000000     0.0336451  
H278     H      0.778530000000     0.126950000000     0.014830000000     0.0425372  
H279     H      0.821660000000     0.164430000000     0.061850000000     0.0400811  
H280     H      0.766090000000     0.316660000000     0.013390000000     0.0403472  
H281     H      0.709420000000     0.360730000000     0.022540000000     0.044896   
H282     H      0.841190000000     0.124380000000     0.944950000000     0.0327782  
H283     H      0.219770000000     0.782450000000     0.072260000000     0.0418212  
H284     H      0.265600000000     0.639660000000     0.016980000000     0.0351429  
H285     H      0.359070000000     0.730000000000     0.018110000000     0.0468752  
H286     H      0.109210000000     0.819990000000     0.969940000000     0.0336795  
H287     H      0.321880000000     0.608750000000     0.053490000000     0.0375113  
H288     H      0.232620000000     0.858600000000     0.000940000000     0.0345215  
H289     H      0.141260000000     0.766850000000     0.008730000000     0.0368448  
H290     H      0.178230000000     0.912340000000     0.015570000000     0.0461422  
H291     H      0.412210000000     0.675560000000     0.006310000000     0.0260386  
H292     H      0.271780000000     0.728850000000     0.080920000000     0.0461481  
H293     H      0.318030000000     0.585110000000     0.003960000000     0.0356012  
H294     H      0.228410000000     0.769710000000     0.940830000000     0.045896   
H295     H      0.296320000000     0.647980000000     0.971700000000     0.032328   
H296     H      0.087770000000     0.821190000000     0.020500000000     0.0373285  
H297     H      0.204150000000     0.851620000000     0.047680000000     0.0369195  
H298     H      0.150970000000     0.800050000000     0.051840000000     0.037229   
H299     H      0.280840000000     0.716490000000     0.949500000000     0.0412725  
H300     H      0.350850000000     0.699670000000     0.972890000000     0.0384358  
H301     H      0.176360000000     0.889010000000     0.965930000000     0.0341513  
H302     H      0.210500000000     0.220480000000     0.933440000000     0.0391471  
H303     H      0.261260000000     0.360360000000     0.997680000000     0.0275807  
H304     H      0.351440000000     0.267970000000     0.983220000000     0.0468242  
H305     H      0.101990000000     0.176130000000     0.035040000000     0.0315926  
H306     H      0.315160000000     0.393160000000     0.959680000000     0.039826   
H307     H      0.226880000000     0.141290000000     0.002420000000     0.0434946  
H308     H      0.133100000000     0.230790000000     0.997860000000     0.0371184  
H309     H      0.174130000000     0.086200000000     0.989640000000     0.0280696  
H310     H      0.407060000000     0.320290000000     0.994610000000     0.0181591  
H311     H      0.262560000000     0.274280000000     0.925970000000     0.0456453  
H312     H      0.316710000000     0.412300000000     0.011200000000     0.0377331  
H313     H      0.223510000000     0.226170000000     0.064970000000     0.0426679  
H314     H      0.294950000000     0.347790000000     0.039700000000     0.031683   
H315     H      0.081000000000     0.174970000000     0.984370000000     0.0317411  
H316     H      0.196920000000     0.148020000000     0.956460000000     0.0414239  
H317     H      0.143400000000     0.199110000000     0.953810000000     0.0397977  
H318     H      0.276310000000     0.279250000000     0.057440000000     0.0389917  
H319     H      0.347360000000     0.295390000000     0.030780000000     0.0445485  
H320     H      0.171440000000     0.110210000000     0.038970000000     0.0246097  
H321     H      0.785480000000     0.056870000000     0.777900000000     0.0388067  
H322     H      0.732340000000     0.008630000000     0.634160000000     0.0424695  
H323     H      0.642380000000     0.009070000000     0.728170000000     0.0533841  
H324     H      0.890110000000     0.948810000000     0.818310000000     0.0316041  
H325     H      0.675940000000     0.047680000000     0.606630000000     0.0338984  
H326     H      0.768440000000     0.984890000000     0.852800000000     0.0349475  
H327     H      0.862010000000     0.988430000000     0.762640000000     0.0344867  
H328     H      0.820940000000     0.993780000000     0.908200000000     0.0339987  
H329     H      0.586970000000     0.000000000000     0.675020000000     0.0219185  
H330     H      0.732650000000     0.069070000000     0.725570000000     0.0474493  
H331     H      0.677550000000     0.999170000000     0.581000000000     0.025631   
H332     H      0.770660000000     0.926710000000     0.762320000000     0.0417264  
H333     H      0.700730000000     0.964060000000     0.642130000000     0.0395533  
H334     H      0.915070000000     0.997690000000     0.817730000000     0.0333104  
H335     H      0.799370000000     0.030290000000     0.847260000000     0.0430591  
H336     H      0.853550000000     0.032380000000     0.794980000000     0.043013   
H337     H      0.717690000000     0.938910000000     0.710140000000     0.0416762  
H338     H      0.648310000000     0.964840000000     0.696070000000     0.04371    
H339     H      0.824560000000     0.946130000000     0.881170000000     0.032295   
H340     H      0.215220000000     0.941960000000     0.787150000000     0.0429004  
H341     H      0.266870000000     0.987320000000     0.643030000000     0.0356911  
H342     H      0.360100000000     0.983800000000     0.733710000000     0.0470471  
H343     H      0.115140000000     0.054890000000     0.825750000000     0.0330872  
H344     H      0.320500000000     0.945710000000     0.613830000000     0.0360873  
H345     H      0.232980000000     0.013040000000     0.862690000000     0.0340981  
H346     H      0.142170000000     0.014750000000     0.769620000000     0.0345264  
H347     H      0.178480000000     0.005740000000     0.916430000000     0.0366427  
H348     H      0.413830000000     0.990330000000     0.678440000000     0.0201905  
H349     H      0.266900000000     0.927400000000     0.734290000000     0.0441787  
H350     H      0.319940000000     0.994020000000     0.587820000000     0.0331271  
H351     H      0.235380000000     0.071340000000     0.770990000000     0.045274   
H352     H      0.300600000000     0.030550000000     0.649480000000     0.0426707  
H353     H      0.087020000000     0.007860000000     0.822400000000     0.0387079  
H354     H      0.200630000000     0.968850000000     0.855620000000     0.0327402  
H355     H      0.147520000000     0.969900000000     0.801400000000     0.0333973  
H356     H      0.287200000000     0.056760000000     0.718250000000     0.0382839  
H357     H      0.354800000000     0.028000000000     0.701470000000     0.0471702  
H358     H      0.176970000000     0.053550000000     0.889430000000     0.0329934  
H359     H      0.276760000000     0.942670000000     0.287930000000     0.0430434  
H360     H      0.132610000000     0.991590000000     0.234080000000     0.0289555  
H361     H      0.226580000000     0.984940000000     0.144330000000     0.0471439  
H362     H      0.318460000000     0.052660000000     0.389300000000     0.0330495  
H363     H      0.104130000000     0.950330000000     0.179820000000     0.0390642  
H364     H      0.352010000000     0.014800000000     0.268740000000     0.0354053  
H365     H      0.261990000000     0.012940000000     0.362570000000     0.034249   
H366     H      0.407510000000     0.006480000000     0.321120000000     0.0407842  
H367     H      0.173720000000     0.991430000000     0.088440000000     0.0179575  
H368     H      0.223870000000     0.929200000000     0.236020000000     0.0442631  
H369     H      0.079660000000     0.999450000000     0.178690000000     0.0326347  
H370     H      0.261820000000     0.072430000000     0.269280000000     0.0453788  
H371     H      0.141390000000     0.034340000000     0.200250000000     0.0338709  
H372     H      0.316780000000     0.004570000000     0.415710000000     0.0380132  
H373     H      0.346350000000     0.969680000000     0.300060000000     0.0343267  
H374     H      0.293970000000     0.968590000000     0.354790000000     0.0328791  
H375     H      0.209260000000     0.058920000000     0.216990000000     0.0380048  
H376     H      0.195120000000     0.029890000000     0.147890000000     0.0451397  
H377     H      0.380200000000     0.054010000000     0.324880000000     0.0343668  
H378     H      0.710230000000     0.938220000000     0.275030000000     0.0421711  
H379     H      0.761380000000     0.996550000000     0.133880000000     0.0283811  
H380     H      0.850580000000     0.993040000000     0.228430000000     0.038695   
H381     H      0.602450000000     0.040710000000     0.320090000000     0.0311635  
H382     H      0.816530000000     0.958560000000     0.103820000000     0.0401032  
H383     H      0.725850000000     0.006210000000     0.353320000000     0.0421048  
H384     H      0.632070000000     0.004520000000     0.263370000000     0.0431237  
H385     H      0.673430000000     0.992580000000     0.408230000000     0.0283178  
H386     H      0.906490000000     0.002420000000     0.175720000000     0.0279119  
H387     H      0.762910000000     0.930340000000     0.221830000000     0.0446597  
H388     H      0.817380000000     0.008760000000     0.081710000000     0.0439166  
H389     H      0.721170000000     0.069440000000     0.266290000000     0.0462239  
H390     H      0.793300000000     0.040470000000     0.143880000000     0.0340749  
H391     H      0.579670000000     0.990840000000     0.318350000000     0.0309796  
H392     H      0.695900000000     0.960500000000     0.345530000000     0.0406049  
H393     H      0.641910000000     0.959530000000     0.293820000000     0.0406269  
H394     H      0.774150000000     0.061480000000     0.213210000000     0.038355   
H395     H      0.845100000000     0.037680000000     0.196830000000     0.0385751  
H396     H      0.669700000000     0.041990000000     0.384620000000     0.0258475  
H397     H      0.076470000000     0.272140000000     0.732240000000     0.0434742  
H398     H      0.001170000000     0.140910000000     0.768840000000     0.0344995  
H399     H      0.999080000000     0.231970000000     0.861370000000     0.0383025  
H400     H      0.051510000000     0.324150000000     0.612140000000     0.0334527  
H401     H      0.962660000000     0.109730000000     0.823030000000     0.0385033  
H402     H      0.011240000000     0.359020000000     0.732230000000     0.0351974  
H403     H      0.016140000000     0.266340000000     0.641440000000     0.0340859  
H404     H      0.998310000000     0.411720000000     0.677950000000     0.0307584  
H405     H      0.010750000000     0.176610000000     0.914980000000     0.0284319  
H406     H      0.067470000000     0.219740000000     0.785550000000     0.0408835  
H407     H      0.012570000000     0.086760000000     0.822570000000     0.0413069  
H408     H      0.945230000000     0.279430000000     0.717350000000     0.0407503  
H409     H      0.045360000000     0.149170000000     0.801010000000     0.0343879  
H410     H      0.003080000000     0.318640000000     0.586610000000     0.0366353  
H411     H      0.966620000000     0.348890000000     0.701130000000     0.0329962  
H412     H      0.969460000000     0.295070000000     0.648470000000     0.0318634  
H413     H      0.936260000000     0.227130000000     0.770650000000     0.0472581  
H414     H      0.043670000000     0.200680000000     0.854100000000     0.0376499  
H415     H      0.048170000000     0.388670000000     0.675490000000     0.0320906  
H416     H      0.057920000000     0.714000000000     0.715960000000     0.0393667  
H417     H      0.003840000000     0.859230000000     0.763600000000     0.0430144  
H418     H      0.006800000000     0.766240000000     0.854260000000     0.0540523  
H419     H      0.955930000000     0.676750000000     0.605200000000     0.0421945  
H420     H      0.042740000000     0.889010000000     0.818560000000     0.0330142  
H421     H      0.983550000000     0.640020000000     0.729500000000     0.035727   
H422     H      0.995430000000     0.729910000000     0.636640000000     0.0273878  
H423     H      0.994900000000     0.584650000000     0.676940000000     0.0371546  
H424     H      0.998860000000     0.819420000000     0.909410000000     0.0131665  
H425     H      0.067910000000     0.767590000000     0.767770000000     0.048126   
H426     H      0.992980000000     0.912360000000     0.818620000000     0.0258196  
H427     H      0.926900000000     0.730310000000     0.724300000000     0.0426068  
H428     H      0.959780000000     0.850530000000     0.795860000000     0.0396094  
H429     H      0.006610000000     0.674570000000     0.584270000000     0.0458375  
H430     H      0.030840000000     0.644530000000     0.701210000000     0.044528   
H431     H      0.037600000000     0.695950000000     0.647680000000     0.0356475  
H432     H      0.936910000000     0.783350000000     0.776780000000     0.0419338  
H433     H      0.962250000000     0.798060000000     0.848680000000     0.0445581  
H434     H      0.947370000000     0.611750000000     0.672040000000     0.0332913  
H435     H      0.072660000000     0.777550000000     0.216680000000     0.0416555  
H436     H      0.012580000000     0.728000000000     0.357770000000     0.0347492  
H437     H      0.023800000000     0.636160000000     0.266490000000     0.0458378  
H438     H      0.967720000000     0.884500000000     0.175810000000     0.0309318  
H439     H      0.051400000000     0.674400000000     0.390260000000     0.037376   
H440     H      0.004860000000     0.762280000000     0.137430000000     0.0366539  
H441     H      0.005710000000     0.853250000000     0.229890000000     0.0365101  
H442     H      0.016900000000     0.817190000000     0.083890000000     0.036112   
H443     H      0.016100000000     0.581610000000     0.320070000000     0.022663   
H444     H      0.081410000000     0.725830000000     0.270620000000     0.0462106  
H445     H      0.000640000000     0.674030000000     0.411390000000     0.0366385  
H446     H      0.941380000000     0.763030000000     0.224080000000     0.0456299  
H447     H      0.969950000000     0.694470000000     0.347140000000     0.031095   
H448     H      0.017660000000     0.907210000000     0.175630000000     0.03721    
H449     H      0.049790000000     0.793350000000     0.145520000000     0.0371602  
H450     H      0.050230000000     0.845350000000     0.198090000000     0.0373929  
H451     H      0.950220000000     0.710710000000     0.277530000000     0.0404892  
H452     H      0.977260000000     0.640500000000     0.295700000000     0.0358689  
H453     H      0.967080000000     0.817060000000     0.107050000000     0.0292696  
H454     H      0.049300000000     0.272250000000     0.286300000000     0.0391567  
H455     H      0.986160000000     0.132870000000     0.233890000000     0.0336298  
H456     H      0.000360000000     0.225520000000     0.144040000000     0.0542308  
H457     H      0.943550000000     0.323370000000     0.388690000000     0.0332894  
H458     H      0.025650000000     0.099870000000     0.181420000000     0.0370564  
H459     H      0.985590000000     0.353950000000     0.267640000000     0.0352683  
H460     H      0.978020000000     0.264300000000     0.361200000000     0.0351342  
H461     H      0.999720000000     0.408030000000     0.320780000000     0.0304702  
H462     H      0.992260000000     0.172840000000     0.088190000000     0.0150078  
H463     H      0.057300000000     0.217860000000     0.234960000000     0.0452258  
H464     H      0.974280000000     0.080750000000     0.177520000000     0.0360337  
H465     H      0.918220000000     0.269470000000     0.268760000000     0.0431797  
H466     H      0.944730000000     0.144820000000     0.199330000000     0.0365636  
H467     H      0.991850000000     0.318040000000     0.414390000000     0.0311799  
H468     H      0.029650000000     0.343700000000     0.299410000000     0.040939   
H469     H      0.025240000000     0.291980000000     0.353620000000     0.0412228  
H470     H      0.926330000000     0.215240000000     0.217050000000     0.0395058  
H471     H      0.953710000000     0.196520000000     0.146990000000     0.0442073  
H472     H      0.949040000000     0.386790000000     0.322730000000     0.03455    
N1       N      0.564880000000     0.121380000000     0.348530000000    -0.130095   
N2       N      0.495740000000     0.126590000000     0.374230000000    -0.200671   
N3       N      0.506520000000     0.190340000000     0.316280000000    -0.105      
N4       N      0.510420000000     0.312860000000     0.189210000000    -0.111011   
N5       N      0.503940000000     0.374620000000     0.128930000000    -0.194247   
N6       N      0.451030000000     0.896720000000     0.313990000000    -0.122419   
N7       N      0.498880000000     0.873250000000     0.365200000000    -0.197095   
N8       N      0.492120000000     0.814520000000     0.302320000000    -0.105821   
N9       N      0.511680000000     0.691600000000     0.179840000000    -0.111997   
N10      N      0.500470000000     0.629550000000     0.120560000000    -0.187909   
N11      N      0.438330000000     0.670520000000     0.883510000000    -0.121459   
N12      N      0.488560000000     0.619870000000     0.864460000000    -0.195      
N13      N      0.481660000000     0.678690000000     0.801440000000    -0.106031   
N14      N      0.509310000000     0.800850000000     0.679920000000    -0.112582   
N15      N      0.502720000000     0.864110000000     0.621510000000    -0.186838   
N16      N      0.534520000000     0.313500000000     0.899080000000    -0.123214   
N17      N      0.485740000000     0.363560000000     0.874870000000    -0.195735   
N18      N      0.494400000000     0.301750000000     0.815800000000    -0.105511   
N19      N      0.485830000000     0.178860000000     0.692210000000    -0.112099   
N20      N      0.498970000000     0.120250000000     0.630350000000    -0.188669   
N21      N      0.598170000000     0.180660000000     0.458540000000    -0.125948   
N22      N      0.622860000000     0.125350000000     0.501030000000    -0.199571   
N23      N      0.682860000000     0.186670000000     0.493700000000    -0.105839   
N24      N      0.807520000000     0.308300000000     0.506300000000    -0.112187   
N25      N      0.868110000000     0.368710000000     0.495420000000    -0.18924    
N26      N      0.876960000000     0.668820000000     0.559630000000    -0.122474   
N27      N      0.867870000000     0.624060000000     0.501870000000    -0.194028   
N28      N      0.806160000000     0.685050000000     0.504690000000    -0.105952   
N29      N      0.687810000000     0.809880000000     0.471880000000    -0.112605   
N30      N      0.626360000000     0.870950000000     0.478590000000    -0.188611   
N31      N      0.173170000000     0.388890000000     0.449980000000    -0.125576   
N32      N      0.123440000000     0.368370000000     0.500610000000    -0.200422   
N33      N      0.183550000000     0.306860000000     0.492020000000    -0.106298   
N34      N      0.305860000000     0.183360000000     0.510000000000    -0.112266   
N35      N      0.367100000000     0.123150000000     0.500980000000    -0.189128   
N36      N      0.171090000000     0.607840000000     0.555950000000    -0.123261   
N37      N      0.125490000000     0.623800000000     0.500180000000    -0.196374   
N38      N      0.185840000000     0.685140000000     0.508210000000    -0.105775   
N39      N      0.309770000000     0.806130000000     0.486460000000    -0.112265   
N40      N      0.370170000000     0.867220000000     0.494650000000    -0.186979   
N41      N      0.634630000000     0.566550000000     0.143480000000    -0.124082   
N42      N      0.627510000000     0.497120000000     0.120360000000    -0.199525   
N43      N      0.690940000000     0.499640000000     0.178920000000    -0.105124   
N44      N      0.811470000000     0.495300000000     0.306690000000    -0.111171   
N45      N      0.873070000000     0.491160000000     0.366850000000    -0.19124    
N46      N      0.172430000000     0.555700000000     0.392790000000    -0.120244   
N47      N      0.127600000000     0.500260000000     0.374100000000    -0.198926   
N48      N      0.189110000000     0.509270000000     0.313970000000    -0.105491   
N49      N      0.313800000000     0.494420000000     0.192080000000    -0.112629   
N50      N      0.372500000000     0.503260000000     0.129260000000    -0.19267    
N51      N      0.104160000000     0.543150000000     0.678480000000    -0.121308   
N52      N      0.121530000000     0.490440000000     0.629820000000    -0.197422   
N53      N      0.181300000000     0.493280000000     0.691960000000    -0.105719   
N54      N      0.300820000000     0.466220000000     0.816460000000    -0.112427   
N55      N      0.363320000000     0.476420000000     0.875500000000    -0.189722   
N56      N      0.603110000000     0.438180000000     0.815360000000    -0.121738   
N57      N      0.619530000000     0.490320000000     0.864860000000    -0.194211   
N58      N      0.679680000000     0.486820000000     0.802750000000    -0.105807   
N59      N      0.802480000000     0.516540000000     0.681870000000    -0.112418   
N60      N      0.865380000000     0.508640000000     0.622720000000    -0.187129   
N61      N      0.607960000000     0.670500000000     0.926860000000    -0.121387   
N62      N      0.625180000000     0.622490000000     0.980090000000    -0.194421   
N63      N      0.687750000000     0.682320000000     0.972440000000    -0.103953   
N64      N      0.811100000000     0.803790000000     0.999140000000    -0.113037   
N65      N      0.871640000000     0.865610000000     0.994110000000    -0.184191   
N66      N      0.653530000000     0.370550000000     0.935380000000    -0.123949   
N67      N      0.622580000000     0.368620000000     0.002520000000    -0.196629   
N68      N      0.681930000000     0.305920000000     0.999790000000    -0.108771   
N69      N      0.808160000000     0.183610000000     0.000510000000    -0.107027   
N70      N      0.867370000000     0.120920000000     0.003970000000    -0.188771   
N71      N      0.389150000000     0.672170000000     0.066280000000    -0.121218   
N72      N      0.369670000000     0.625480000000     0.012810000000    -0.196526   
N73      N      0.310000000000     0.687080000000     0.022590000000    -0.107939   
N74      N      0.188930000000     0.810310000000     0.999210000000    -0.120806   
N75      N      0.128100000000     0.870900000000     0.005240000000    -0.18427    
N76      N      0.379910000000     0.327810000000     0.936740000000    -0.120883   
N77      N      0.365940000000     0.371800000000     0.994040000000    -0.199419   
N78      N      0.303560000000     0.312390000000     0.985100000000    -0.108387   
N79      N      0.182040000000     0.188470000000     0.005850000000    -0.101667   
N80      N      0.122640000000     0.126190000000     0.999350000000    -0.199447   
N81      N      0.610690000000     0.059530000000     0.673270000000    -0.122131   
N82      N      0.627570000000     0.007880000000     0.623530000000    -0.198917   
N83      N      0.690090000000     0.013680000000     0.683650000000    -0.0999732  
N84      N      0.812650000000     0.982090000000     0.804850000000    -0.11008    
N85      N      0.872640000000     0.987350000000     0.867400000000    -0.187077   
N86      N      0.387890000000     0.931730000000     0.678250000000    -0.121572   
N87      N      0.371130000000     0.983510000000     0.628520000000    -0.194682   
N88      N      0.310650000000     0.980820000000     0.691010000000    -0.103468   
N89      N      0.190590000000     0.017910000000     0.813290000000    -0.11523    
N90      N      0.128370000000     0.013590000000     0.873890000000    -0.186947   
N91      N      0.170710000000     0.933530000000     0.115900000000    -0.121078   
N92      N      0.122020000000     0.987050000000     0.129380000000    -0.199268   
N93      N      0.181960000000     0.983480000000     0.192150000000    -0.107489   
N94      N      0.304050000000     0.018070000000     0.312920000000    -0.115208   
N95      N      0.366670000000     0.012600000000     0.372860000000    -0.187267   
N96      N      0.882220000000     0.943000000000     0.173670000000    -0.121647   
N97      N      0.866310000000     0.995020000000     0.123900000000    -0.194184   
N98      N      0.803610000000     0.988960000000     0.183050000000    -0.111982   
N99      N      0.681190000000     0.010620000000     0.305900000000    -0.106023   
N100     N      0.621760000000     0.001640000000     0.368100000000    -0.191572   
N101     N      0.950000000000     0.177260000000     0.894140000000    -0.121661   
N102     N      0.999890000000     0.126990000000     0.873320000000    -0.197398   
N103     N      0.994260000000     0.188540000000     0.812800000000    -0.11626    
N104     N      0.018380000000     0.310260000000     0.689560000000    -0.114431   
N105     N      0.008520000000     0.370090000000     0.627620000000    -0.189734   
N106     N      0.057930000000     0.821380000000     0.883960000000    -0.123432   
N107     N      0.005320000000     0.870640000000     0.868340000000    -0.196917   
N108     N      0.010730000000     0.810580000000     0.806410000000    -0.0994016  
N109     N      0.984250000000     0.687750000000     0.685110000000    -0.114204   
N110     N      0.990210000000     0.625650000000     0.625390000000    -0.184789   
N111     N      0.072940000000     0.611270000000     0.326090000000    -0.122024   
N112     N      0.015670000000     0.623800000000     0.370960000000    -0.195214   
N113     N      0.023270000000     0.684830000000     0.310080000000    -0.107945   
N114     N      0.999540000000     0.805490000000     0.185960000000    -0.119763   
N115     N      0.004390000000     0.866720000000     0.125380000000    -0.188145   
N116     N      0.049590000000     0.167490000000     0.117000000000    -0.127008   
N117     N      0.993530000000     0.121240000000     0.129200000000    -0.201691   
N118     N      0.998920000000     0.180960000000     0.191820000000    -0.105276   
N119     N      0.976880000000     0.306710000000     0.311710000000    -0.110151   
N120     N      0.987020000000     0.368440000000     0.371990000000    -0.192503   
O1       O      0.993660000000     0.104950000000     0.059480000000    -0.619612   
O2       O      0.001860000000     0.885140000000     0.056250000000    -0.55772    
O3       O      0.936040000000     0.997010000000     0.108090000000    -0.609693   
O4       O      0.053320000000     0.991920000000     0.110230000000    -0.622466   
O5       O      0.106220000000     0.992970000000     0.059790000000    -0.620665   
O6       O      0.885720000000     0.995990000000     0.055110000000    -0.569824   
O7       O      0.001580000000     0.935930000000     0.108670000000    -0.603177   
O8       O      0.991780000000     0.052420000000     0.110110000000    -0.621596   
O9       O      0.037840000000     0.956380000000     0.039220000000    -1.44942    
O10      O      0.955490000000     0.034840000000     0.039020000000    -1.44693    
O11      O      0.950980000000     0.947910000000     0.038710000000    -1.04516    
O12      O      0.037940000000     0.037920000000     0.042510000000    -1.61689    
O13      O      0.001050000000     0.886970000000     0.937820000000    -0.557253   
O14      O      0.999920000000     0.108040000000     0.942360000000    -0.611423   
O15      O      0.888100000000     0.935030000000     0.994500000000    -0.561808   
O16      O      0.109620000000     0.939760000000     0.004270000000    -0.607257   
O17      O      0.106580000000     0.056690000000     0.999890000000    -0.627174   
O18      O      0.886170000000     0.052820000000     0.997320000000    -0.574645   
O19      O      0.941320000000     0.993850000000     0.886540000000    -0.56335    
O20      O      0.059230000000     0.004440000000     0.889850000000    -0.561457   
O21      O      0.888510000000     0.991470000000     0.937020000000    -0.562984   
O22      O      0.109720000000     0.005730000000     0.942620000000    -0.60423    
O23      O      0.940780000000     0.884470000000     0.994550000000    -0.561009   
O24      O      0.936540000000     0.104710000000     0.007730000000    -0.604663   
O25      O      0.053780000000     0.107100000000     0.998660000000    -0.621349   
O26      O      0.058820000000     0.887400000000     0.001820000000    -0.562926   
O27      O      0.001400000000     0.939420000000     0.887000000000    -0.55838    
O28      O      0.000450000000     0.057530000000     0.889630000000    -0.563361   
O29      O      0.037980000000     0.037990000000     0.960430000000    -1.45078    
O30      O      0.959300000000     0.955960000000     0.956770000000    -1.35383    
O31      O      0.951160000000     0.037900000000     0.951800000000    -1.03503    
O32      O      0.041570000000     0.951450000000     0.952190000000    -1.04552    
O33      O      0.992390000000     0.386480000000     0.440970000000    -0.62325    
O34      O      0.003180000000     0.606460000000     0.439140000000    -0.571593   
O35      O      0.941340000000     0.494730000000     0.385990000000    -0.620571   
O36      O      0.057950000000     0.496840000000     0.389860000000    -0.623638   
O37      O      0.108180000000     0.499100000000     0.442940000000    -0.628735   
O38      O      0.888410000000     0.490500000000     0.436340000000    -0.575326   
O39      O      0.008040000000     0.554740000000     0.387970000000    -0.597579   
O40      O      0.994260000000     0.437570000000     0.388830000000    -0.61888    
O41      O      0.038400000000     0.536170000000     0.459100000000    -1.46618    
O42      O      0.957560000000     0.456190000000     0.457360000000    -1.46187    
O43      O      0.951210000000     0.543180000000     0.455080000000    -1.06028    
O44      O      0.039260000000     0.454190000000     0.457840000000    -1.62934    
O45      O      0.994440000000     0.607300000000     0.556550000000    -0.56652    
O46      O      0.002340000000     0.386590000000     0.558250000000    -0.605153   
O47      O      0.885850000000     0.555270000000     0.496290000000    -0.567807   
O48      O      0.107830000000     0.554680000000     0.498180000000    -0.611481   
O49      O      0.106290000000     0.437580000000     0.502800000000    -0.630838   
O50      O      0.886010000000     0.437730000000     0.495360000000    -0.574387   
O51      O      0.934830000000     0.500850000000     0.607510000000    -0.569012   
O52      O      0.052940000000     0.494440000000     0.610390000000    -0.569922   
O53      O      0.884630000000     0.501090000000     0.554340000000    -0.567247   
O54      O      0.105780000000     0.490390000000     0.560060000000    -0.616904   
O55      O      0.937480000000     0.606820000000     0.499500000000    -0.558774   
O56      O      0.937460000000     0.386000000000     0.494930000000    -0.612113   
O57      O      0.054290000000     0.386340000000     0.501690000000    -0.625951   
O58      O      0.056280000000     0.606360000000     0.497370000000    -0.567213   
O59      O      0.992470000000     0.556260000000     0.608740000000    -0.564521   
O60      O      0.998570000000     0.438360000000     0.609510000000    -0.580753   
O61      O      0.035800000000     0.456410000000     0.539950000000    -1.47182    
O62      O      0.955790000000     0.536730000000     0.537230000000    -1.37489    
O63      O      0.948610000000     0.455180000000     0.544650000000    -1.05945    
O64      O      0.037490000000     0.543100000000     0.545990000000    -1.04727    
O65      O      0.605750000000     0.998080000000     0.437660000000    -0.624762   
O66      O      0.385370000000     0.002270000000     0.441160000000    -0.562761   
O67      O      0.499590000000     0.941660000000     0.385320000000    -0.612326   
O68      O      0.494830000000     0.057610000000     0.390050000000    -0.632449   
O69      O      0.490580000000     0.107830000000     0.443000000000    -0.624942   
O70      O      0.499010000000     0.888360000000     0.435090000000    -0.573641   
O71      O      0.436140000000     0.006200000000     0.388800000000    -0.605637   
O72      O      0.553020000000     0.998200000000     0.387060000000    -0.623936   
O73      O      0.455410000000     0.037590000000     0.459850000000    -1.46761    
O74      O      0.537100000000     0.958260000000     0.455620000000    -1.46497    
O75      O      0.449880000000     0.950820000000     0.455490000000    -1.06237    
O76      O      0.537340000000     0.040120000000     0.457120000000    -1.63804    
O77      O      0.387360000000     0.990300000000     0.559100000000    -0.563357   
O78      O      0.608890000000     0.002170000000     0.554700000000    -0.610845   
O79      O      0.439280000000     0.885390000000     0.496550000000    -0.56601    
O80      O      0.436510000000     0.106380000000     0.498620000000    -0.618774   
O81      O      0.553740000000     0.106950000000     0.503290000000    -0.630364   
O82      O      0.557370000000     0.887390000000     0.488010000000    -0.570629   
O83      O      0.499990000000     0.933790000000     0.606610000000    -0.564296   
O84      O      0.499490000000     0.051730000000     0.610590000000    -0.565149   
O85      O      0.499090000000     0.884120000000     0.553060000000    -0.571092   
O86      O      0.500310000000     0.104930000000     0.560590000000    -0.618873   
O87      O      0.386980000000     0.936350000000     0.497930000000    -0.566032   
O88      O      0.608430000000     0.939490000000     0.488180000000    -0.608075   
O89      O      0.606040000000     0.056080000000     0.499830000000    -0.622339   
O90      O      0.385530000000     0.054190000000     0.500250000000    -0.565138   
O91      O      0.440050000000     0.988900000000     0.609770000000    -0.560785   
O92      O      0.558340000000     0.999090000000     0.607340000000    -0.57208    
O93      O      0.537350000000     0.035950000000     0.538810000000    -1.46292    
O94      O      0.458060000000     0.954490000000     0.537630000000    -1.35858    
O95      O      0.540440000000     0.948860000000     0.542390000000    -1.0649     
O96      O      0.450450000000     0.035810000000     0.547160000000    -1.04023    
O97      O      0.384600000000     0.440300000000     0.999830000000    -0.627427   
O98      O      0.605080000000     0.437020000000     0.995970000000    -0.578611   
O99      O      0.488370000000     0.383830000000     0.943420000000    -0.606504   
O100     O      0.496310000000     0.389570000000     0.059860000000    -0.636685   
O101     O      0.504680000000     0.442980000000     0.109060000000    -0.630014   
O102     O      0.488280000000     0.433280000000     0.889670000000    -0.570895   
O103     O      0.553510000000     0.386490000000     0.006830000000    -0.60642    
O104     O      0.435530000000     0.388070000000     0.998120000000    -0.622495   
O105     O      0.536670000000     0.457820000000     0.037750000000    -1.46939    
O106     O      0.453550000000     0.455770000000     0.960470000000    -1.4789     
O107     O      0.539840000000     0.452610000000     0.950550000000    -1.05678    
O108     O      0.454710000000     0.457210000000     0.042430000000    -1.63749    
O109     O      0.606740000000     0.554040000000     0.988670000000    -0.565422   
O110     O      0.385730000000     0.556530000000     0.005450000000    -0.615323   
O111     O      0.550590000000     0.492750000000     0.884380000000    -0.566253   
O112     O      0.558110000000     0.499150000000     0.105730000000    -0.623307   
O113     O      0.441250000000     0.503750000000     0.109350000000    -0.634585   
O114     O      0.432450000000     0.486920000000     0.889690000000    -0.578092   
O115     O      0.493690000000     0.604830000000     0.934030000000    -0.564941   
O116     O      0.498230000000     0.609510000000     0.051910000000    -0.562289   
O117     O      0.491730000000     0.551360000000     0.884310000000    -0.573147   
O118     O      0.495850000000     0.560050000000     0.105530000000    -0.61493    
O119     O      0.603870000000     0.494470000000     0.934350000000    -0.565261   
O120     O      0.382730000000     0.488970000000     0.943160000000    -0.609421   
O121     O      0.387790000000     0.501790000000     0.059520000000    -0.62514    
O122     O      0.607600000000     0.492510000000     0.052220000000    -0.568559   
O123     O      0.555740000000     0.606260000000     0.987280000000    -0.558035   
O124     O      0.437800000000     0.607440000000     0.001190000000    -0.564026   
O125     O      0.457200000000     0.539070000000     0.037500000000    -1.46536    
O126     O      0.534490000000     0.534960000000     0.953760000000    -1.36777    
O127     O      0.452150000000     0.542010000000     0.950290000000    -1.06674    
O128     O      0.544350000000     0.544550000000     0.035120000000    -1.04148    


