data_structure

_audit_creation_method RASPA-1.0
_audit_creation_date 2023-5-25
_audit_author_name 'Poobodin Mano'

_cell_length_a    32.6081
_cell_length_b    32.5188
_cell_length_c    32.5517
_cell_angle_alpha 90
_cell_angle_beta  90
_cell_angle_gamma 90
_cell_volume      34517.1

_symmetry_cell_setting          triclinic
_symmetry_space_group_name_Hall 'P 1'
_symmetry_space_group_name_H-M  'P 1'
_symmetry_Int_Tables_number     1

_symmetry_equiv_pos_as_xyz 'x,y,z'

loop_
_atom_site_label
_atom_site_type_symbol
_atom_site_fract_x
_atom_site_fract_y
_atom_site_fract_z
_atom_site_charge
Br1      Br     0.418030000000     0.190990000000     0.407970000000    -0.251448   
Br2      Br     0.590210000000     0.839530000000     0.368770000000    -0.25252    
Br3      Br     0.581310000000     0.888500000000     0.676330000000    -0.245725   
Br4      Br     0.587940000000     0.149690000000     0.645120000000    -0.177188   
Br5      Br     0.680440000000     0.127020000000     0.575570000000    -0.211393   
Br6      Br     0.909210000000     0.695390000000     0.576860000000    -0.250847   
Br7      Br     0.384620000000     0.174900000000     0.579980000000    -0.245024   
Br8      Br     0.195200000000     0.594380000000     0.555750000000    -0.249676   
Br9      Br     0.605190000000     0.576140000000     0.188510000000    -0.235736   
Br10     Br     0.103990000000     0.431560000000     0.321880000000    -0.266751   
Br11     Br     0.330800000000     0.411020000000     0.889240000000    -0.22514    
Br12     Br     0.616700000000     0.436430000000     0.828380000000    -0.246812   
Br13     Br     0.675480000000     0.625560000000     0.070210000000    -0.233707   
Br14     Br     0.628770000000     0.340530000000     0.102190000000    -0.253657   
Br15     Br     0.180550000000     0.895040000000     0.946050000000    -0.241881   
Br16     Br     0.392930000000     0.324640000000     0.935540000000    -0.223872   
Br17     Br     0.620270000000     0.088050000000     0.667510000000    -0.175194   
Br18     Br     0.187050000000     0.077300000000     0.897520000000    -0.247825   
Br19     Br     0.323440000000     0.941550000000     0.396020000000    -0.247377   
Br20     Br     0.677300000000     0.087510000000     0.395250000000    -0.267313   
Br21     Br     0.936920000000     0.321380000000     0.613470000000    -0.24638    
Br22     Br     0.925040000000     0.889410000000     0.825930000000    -0.251234   
Br23     Br     0.087250000000     0.610570000000     0.324780000000    -0.254177   
Br24     Br     0.067740000000     0.185090000000     0.118310000000    -0.265599   
C1       C      0.000570000000     0.103430000000     0.102320000000     0.50253    
C2       C      0.001830000000     0.906870000000     0.102570000000     0.501143   
C3       C      0.902430000000     0.013630000000     0.099960000000     0.501993   
C4       C      0.098250000000     0.000470000000     0.103960000000     0.498553   
C5       C      0.997530000000     0.906720000000     0.905550000000     0.508514   
C6       C      0.019090000000     0.103980000000     0.906200000000     0.508774   
C7       C      0.901010000000     0.911270000000     0.995400000000     0.49344    
C8       C      0.097630000000     0.903430000000     0.009610000000     0.513196   
C9       C      0.104750000000     0.099650000000     0.003970000000     0.507408   
C10      C      0.908660000000     0.108700000000     0.005990000000     0.500304   
C11      C      0.907220000000     0.009110000000     0.902680000000     0.498672   
C12      C      0.104300000000     0.008310000000     0.907450000000     0.513476   
C13      C      0.988500000000     0.407240000000     0.406500000000     0.507379   
C14      C      0.014890000000     0.602410000000     0.405660000000     0.511743   
C15      C      0.902420000000     0.502930000000     0.408230000000     0.507349   
C16      C      0.098450000000     0.499810000000     0.404020000000     0.515166   
C17      C      0.011880000000     0.602650000000     0.603050000000     0.498956   
C18      C      0.002400000000     0.405150000000     0.602670000000     0.517421   
C19      C      0.911530000000     0.609890000000     0.510280000000     0.500843   
C20      C      0.107890000000     0.595870000000     0.497600000000     0.516405   
C21      C      0.093840000000     0.399590000000     0.504460000000     0.505027   
C22      C      0.897960000000     0.412690000000     0.498770000000     0.509019   
C23      C      0.907290000000     0.515420000000     0.605360000000     0.496617   
C24      C      0.103280000000     0.491580000000     0.600650000000     0.504005   
C25      C      0.598380000000     0.015670000000     0.403140000000     0.513621   
C26      C      0.402620000000     0.009580000000     0.407120000000     0.515307   
C27      C      0.513570000000     0.913790000000     0.397460000000     0.51223    
C28      C      0.489120000000     0.108360000000     0.412260000000     0.511327   
C29      C      0.407780000000     0.988070000000     0.603820000000     0.49357    
C30      C      0.604460000000     0.010320000000     0.598850000000     0.525278   
C31      C      0.411940000000     0.899240000000     0.500920000000     0.497063   
C32      C      0.398690000000     0.096750000000     0.508930000000     0.518034   
C33      C      0.594630000000     0.109090000000     0.510820000000     0.515361   
C34      C      0.608380000000     0.913210000000     0.490110000000     0.50634    
C35      C      0.511950000000     0.899940000000     0.595370000000     0.504504   
C36      C      0.504780000000     0.096440000000     0.608390000000     0.522612   
C37      C      0.408770000000     0.402990000000     0.005780000000     0.512595   
C38      C      0.605340000000     0.411840000000     0.021110000000     0.510864   
C39      C      0.506400000000     0.400610000000     0.912340000000     0.511248   
C40      C      0.506430000000     0.412200000000     0.108720000000     0.503145   
C41      C      0.596700000000     0.608100000000     0.001130000000     0.495306   
C42      C      0.399920000000     0.598890000000     0.006080000000     0.505407   
C43      C      0.603730000000     0.505030000000     0.909100000000     0.500954   
C44      C      0.598160000000     0.509180000000     0.106520000000     0.523758   
C45      C      0.402070000000     0.511310000000     0.100280000000     0.503333   
C46      C      0.407420000000     0.488060000000     0.904550000000     0.510866   
C47      C      0.501940000000     0.597920000000     0.901030000000     0.492454   
C48      C      0.488880000000     0.608260000000     0.098260000000     0.509909   
C49      C      0.491740000000     0.163720000000     0.312480000000    -0.0374728  
C50      C      0.496850000000     0.367570000000     0.214400000000    -0.035273   
C51      C      0.510370000000     0.339640000000     0.130270000000     0.00358395 
C52      C      0.514300000000     0.397860000000     0.182840000000     0.00769906 
C53      C      0.533760000000     0.276240000000     0.255770000000    -0.0524685  
C54      C      0.453300000000     0.256970000000     0.278380000000    -0.0519789  
C55      C      0.501040000000     0.296490000000     0.236580000000     0.0625763  
C56      C      0.492840000000     0.312710000000     0.164470000000    -0.0330557  
C57      C      0.486010000000     0.236190000000     0.297040000000     0.0634254  
C58      C      0.492700000000     0.213660000000     0.367780000000    -0.064498   
C59      C      0.526470000000     0.246410000000     0.285820000000    -0.0555615  
C60      C      0.476350000000     0.182210000000     0.398900000000     0.131165   
C61      C      0.475370000000     0.129940000000     0.340750000000     0.0146892  
C62      C      0.460610000000     0.286950000000     0.248450000000    -0.0554648  
C63      C      0.499330000000     0.868940000000     0.293500000000    -0.0370929  
C64      C      0.494000000000     0.663860000000     0.197280000000    -0.0382973  
C65      C      0.473500000000     0.681570000000     0.111970000000     0.00979713 
C66      C      0.476240000000     0.629860000000     0.170070000000     0.0128256  
C67      C      0.457590000000     0.755410000000     0.235020000000    -0.0526236  
C68      C      0.538950000000     0.779370000000     0.247790000000    -0.0505409  
C69      C      0.488970000000     0.736390000000     0.212540000000     0.0623616  
C70      C      0.491270000000     0.713490000000     0.141600000000    -0.0368317  
C71      C      0.507590000000     0.798330000000     0.270300000000     0.0642068  
C72      C      0.510760000000     0.814200000000     0.342840000000    -0.0631944  
C73      C      0.466700000000     0.786020000000     0.263800000000    -0.0561702  
C74      C      0.530870000000     0.843590000000     0.373540000000     0.130081   
C75      C      0.517800000000     0.901190000000     0.322510000000     0.0158358  
C76      C      0.529880000000     0.748580000000     0.219220000000    -0.0545788  
C77      C      0.507460000000     0.794450000000     0.640500000000    -0.0362693  
C78      C      0.508900000000     0.698040000000     0.844980000000    -0.035648   
C79      C      0.496750000000     0.611080000000     0.826650000000     0.00725069 
C80      C      0.492560000000     0.669710000000     0.878690000000     0.00729765 
C81      C      0.543110000000     0.724690000000     0.761570000000    -0.0550325  
C82      C      0.475760000000     0.760230000000     0.721850000000    -0.05624    
C83      C      0.503060000000     0.712680000000     0.772480000000     0.0616093  
C84      C      0.512850000000     0.642540000000     0.795690000000    -0.0355507  
C85      C      0.515790000000     0.772500000000     0.711160000000     0.0636901  
C86      C      0.507710000000     0.844570000000     0.695520000000    -0.0637412  
C87      C      0.549260000000     0.754370000000     0.731130000000    -0.0519993  
C88      C      0.523100000000     0.878790000000     0.667210000000     0.129625   
C89      C      0.522700000000     0.826020000000     0.609120000000     0.0129772  
C90      C      0.469610000000     0.730520000000     0.752230000000    -0.05295    
C91      C      0.487140000000     0.145080000000     0.710730000000    -0.0359501  
C92      C      0.515590000000     0.345260000000     0.811420000000    -0.034836   
C93      C      0.506410000000     0.326270000000     0.898670000000     0.00686738 
C94      C      0.500550000000     0.379210000000     0.840150000000     0.0105556  
C95      C      0.470850000000     0.260380000000     0.774660000000    -0.0503035  
C96      C      0.546850000000     0.224590000000     0.757460000000    -0.0509368  
C97      C      0.505700000000     0.273360000000     0.796230000000     0.0646472  
C98      C      0.520560000000     0.295580000000     0.866120000000    -0.0326713  
C99      C      0.511850000000     0.210940000000     0.736580000000     0.0667976  
C100     C      0.515970000000     0.195630000000     0.664040000000    -0.0615589  
C101     C      0.473840000000     0.229800000000     0.744670000000    -0.0551813  
C102     C      0.530720000000     0.162370000000     0.634300000000     0.123267   
C103     C      0.499310000000     0.109460000000     0.682520000000     0.0164613  
C104     C      0.544050000000     0.255890000000     0.786700000000    -0.0535313  
C105     C      0.637700000000     0.215490000000     0.502410000000    -0.0351602  
C106     C      0.841670000000     0.313090000000     0.498790000000    -0.0381393  
C107     C      0.823860000000     0.400330000000     0.488580000000     0.00984311 
C108     C      0.875310000000     0.341920000000     0.483220000000     0.0124585  
C109     C      0.748220000000     0.281080000000     0.460640000000    -0.0512038  
C110     C      0.729150000000     0.256250000000     0.540610000000    -0.0505742  
C111     C      0.769160000000     0.298700000000     0.493880000000     0.0620197  
C112     C      0.792550000000     0.368790000000     0.503930000000    -0.0368478  
C113     C      0.708620000000     0.238260000000     0.507360000000     0.0665222  
C114     C      0.692840000000     0.165930000000     0.498720000000    -0.0642908  
C115     C      0.718160000000     0.251080000000     0.467190000000    -0.0562514  
C116     C      0.666730000000     0.131820000000     0.517690000000     0.130551   
C117     C      0.607790000000     0.183480000000     0.519850000000     0.013092   
C118     C      0.759150000000     0.286220000000     0.534090000000    -0.0531189  
C119     C      0.812190000000     0.666230000000     0.505360000000    -0.0363099  
C120     C      0.714330000000     0.870200000000     0.495580000000    -0.03529    
C121     C      0.630750000000     0.841020000000     0.482600000000     0.00386235 
C122     C      0.682150000000     0.899740000000     0.477920000000     0.00869874 
C123     C      0.749400000000     0.790680000000     0.533410000000    -0.0553538  
C124     C      0.786010000000     0.748160000000     0.468280000000    -0.0550278  
C125     C      0.737270000000     0.799180000000     0.492750000000     0.063358   
C126     C      0.665120000000     0.814690000000     0.500580000000    -0.033034   
C127     C      0.797490000000     0.738990000000     0.508970000000     0.0633999  
C128     C      0.867800000000     0.715530000000     0.502000000000    -0.0632499  
C129     C      0.779230000000     0.760780000000     0.541310000000    -0.050666   
C130     C      0.898830000000     0.684380000000     0.519020000000     0.129452   
C131     C      0.840280000000     0.632690000000     0.522520000000     0.0132913  
C132     C      0.756100000000     0.777950000000     0.460390000000    -0.0526499  
C133     C      0.293050000000     0.141000000000     0.501860000000    -0.0366305  
C134     C      0.193470000000     0.343050000000     0.511450000000    -0.0359292  
C135     C      0.106830000000     0.325190000000     0.497870000000     0.00857628 
C136     C      0.165460000000     0.377340000000     0.496000000000     0.00892629 
C137     C      0.227630000000     0.253140000000     0.468590000000    -0.0516189  
C138     C      0.250200000000     0.228250000000     0.547650000000    -0.0520564  
C139     C      0.208460000000     0.270970000000     0.502730000000     0.0617611  
C140     C      0.138190000000     0.293550000000     0.512930000000    -0.035872   
C141     C      0.269650000000     0.210710000000     0.513510000000     0.0647573  
C142     C      0.342050000000     0.196680000000     0.506260000000    -0.0652019  
C143     C      0.258020000000     0.223300000000     0.473780000000    -0.0560124  
C144     C      0.376300000000     0.168110000000     0.521130000000     0.132203   
C145     C      0.324510000000     0.109310000000     0.516450000000     0.0152633  
C146     C      0.219880000000     0.258180000000     0.542450000000    -0.0544901  
C147     C      0.164290000000     0.696410000000     0.490220000000    -0.0372207  
C148     C      0.368100000000     0.792280000000     0.502780000000    -0.0351096  
C149     C      0.339920000000     0.877390000000     0.497890000000     0.00305193 
C150     C      0.398700000000     0.825560000000     0.489890000000     0.00789861 
C151     C      0.278200000000     0.756100000000     0.457980000000    -0.0519713  
C152     C      0.256650000000     0.724040000000     0.534680000000    -0.0518463  
C153     C      0.297610000000     0.770840000000     0.493430000000     0.0628265  
C154     C      0.313140000000     0.841280000000     0.510930000000    -0.0324549  
C155     C      0.236620000000     0.709960000000     0.499330000000     0.0649643  
C156     C      0.212970000000     0.640920000000     0.483940000000    -0.0641661  
C157     C      0.247970000000     0.725790000000     0.460750000000    -0.0562087  
C158     C      0.182310000000     0.608740000000     0.499190000000     0.131676   
C159     C      0.130070000000     0.667680000000     0.504510000000     0.0157286  
C160     C      0.286990000000     0.754190000000     0.531900000000    -0.0551793  
C161     C      0.699090000000     0.497650000000     0.159340000000    -0.0349891  
C162     C      0.798850000000     0.507890000000     0.360620000000    -0.0366122  
C163     C      0.882610000000     0.487410000000     0.336830000000     0.010487   
C164     C      0.828980000000     0.493120000000     0.393330000000     0.00939676 
C165     C      0.757180000000     0.462560000000     0.273780000000    -0.0518622  
C166     C      0.737650000000     0.541980000000     0.247230000000    -0.0520427  
C167     C      0.777880000000     0.496370000000     0.290490000000     0.0617314  
C168     C      0.849900000000     0.502360000000     0.306760000000    -0.0369026  
C169     C      0.717100000000     0.508180000000     0.230390000000     0.0661325  
C170     C      0.645770000000     0.501410000000     0.210810000000    -0.0638532  
C171     C      0.726990000000     0.468270000000     0.243910000000    -0.0570785  
C172     C      0.614140000000     0.517550000000     0.180000000000     0.131415   
C173     C      0.670950000000     0.513950000000     0.125680000000     0.0121016  
C174     C      0.767850000000     0.536280000000     0.277050000000    -0.0540637  
C175     C      0.199780000000     0.506720000000     0.351270000000    -0.0370575  
C176     C      0.298560000000     0.503830000000     0.148210000000    -0.0368929  
C177     C      0.382090000000     0.525090000000     0.172140000000     0.00886751 
C178     C      0.328390000000     0.520020000000     0.115710000000     0.00857585 
C179     C      0.257270000000     0.546100000000     0.237440000000    -0.0513775  
C180     C      0.237980000000     0.465770000000     0.261240000000    -0.0524514  
C181     C      0.277690000000     0.513000000000     0.219020000000     0.0610599  
C182     C      0.349790000000     0.508570000000     0.201930000000    -0.0368636  
C183     C      0.217590000000     0.498880000000     0.279700000000     0.064805   
C184     C      0.146330000000     0.505440000000     0.299700000000    -0.0655315  
C185     C      0.227500000000     0.539260000000     0.267560000000    -0.0567107  
C186     C      0.114270000000     0.489890000000     0.330510000000     0.132347   
C187     C      0.170960000000     0.490560000000     0.384590000000     0.0165933  
C188     C      0.267840000000     0.472620000000     0.231180000000    -0.054427   
C189     C      0.359970000000     0.489130000000     0.800310000000    -0.0356637  
C190     C      0.155770000000     0.479470000000     0.703190000000    -0.0353468  
C191     C      0.176920000000     0.488360000000     0.616430000000     0.00468418 
C192     C      0.122840000000     0.495040000000     0.673510000000     0.00836741 
C193     C      0.246560000000     0.521350000000     0.737090000000    -0.0520623  
C194     C      0.270220000000     0.442850000000     0.762830000000    -0.0515476  
C195     C      0.227750000000     0.486710000000     0.719730000000     0.0625644  
C196     C      0.206350000000     0.473030000000     0.649630000000    -0.0330728  
C197     C      0.289170000000     0.477480000000     0.780040000000     0.0646526  
C198     C      0.306510000000     0.486120000000     0.851900000000    -0.0626411  
C199     C      0.276910000000     0.516930000000     0.767130000000    -0.0559964  
C200     C      0.336200000000     0.470400000000     0.884770000000     0.128283   
C201     C      0.392720000000     0.475100000000     0.831090000000     0.0131137  
C202     C      0.239670000000     0.447280000000     0.733020000000    -0.0545501  
C203     C      0.707260000000     0.516320000000     0.860790000000    -0.0360547  
C204     C      0.805960000000     0.514030000000     0.657700000000    -0.0358106  
C205     C      0.891790000000     0.527860000000     0.678650000000     0.00763113 
C206     C      0.835470000000     0.529840000000     0.624770000000     0.00826319 
C207     C      0.768780000000     0.553850000000     0.748310000000    -0.0530653  
C208     C      0.747890000000     0.473660000000     0.771190000000    -0.0512039  
C209     C      0.788590000000     0.520550000000     0.729540000000     0.0622662  
C210     C      0.859660000000     0.512300000000     0.709190000000    -0.0356065  
C211     C      0.728150000000     0.506960000000     0.790000000000     0.0636893  
C212     C      0.656120000000     0.512110000000     0.807140000000    -0.0633757  
C213     C      0.738730000000     0.547260000000     0.778230000000    -0.0558675  
C214     C      0.623510000000     0.495350000000     0.836610000000     0.129111   
C215     C      0.677540000000     0.500030000000     0.893330000000     0.0126522  
C216     C      0.777800000000     0.480240000000     0.741140000000    -0.0550898  
C217     C      0.643590000000     0.712490000000     0.986960000000    -0.0237817  
C218     C      0.846720000000     0.810570000000     0.997040000000    -0.0275191  
C219     C      0.828240000000     0.896670000000     0.980330000000     0.00532403 
C220     C      0.881020000000     0.839190000000     0.982620000000     0.00494406 
C221     C      0.757660000000     0.774320000000     0.953070000000    -0.0525789  
C222     C      0.731060000000     0.754780000000     0.032370000000    -0.0590288  
C223     C      0.775180000000     0.794370000000     0.986900000000     0.0679263  
C224     C      0.796360000000     0.865350000000     0.994800000000    -0.0276751  
C225     C      0.713690000000     0.734600000000     0.998580000000     0.0751934  
C226     C      0.697660000000     0.662130000000     0.993770000000    -0.0442083  
C227     C      0.727200000000     0.744600000000     0.958730000000    -0.0585593  
C228     C      0.668510000000     0.629540000000     0.010970000000     0.114336   
C229     C      0.611040000000     0.682520000000     0.002900000000    -0.00128041 
C230     C      0.761580000000     0.784390000000     0.026730000000    -0.0596119  
C231     C      0.709070000000     0.365650000000     0.014270000000    -0.0440195  
C232     C      0.808070000000     0.162610000000     0.018760000000    -0.0340443  
C233     C      0.893410000000     0.182740000000     0.000730000000     0.00136862 
C234     C      0.836090000000     0.129120000000     0.001490000000     0.000860505
C235     C      0.769310000000     0.251840000000     0.978630000000    -0.0467959  
C236     C      0.752790000000     0.277940000000     0.058780000000    -0.0514721  
C237     C      0.790990000000     0.234470000000     0.011480000000     0.0557427  
C238     C      0.862150000000     0.213430000000     0.017710000000    -0.0340671  
C239     C      0.731250000000     0.295430000000     0.025910000000     0.0579091  
C240     C      0.658810000000     0.311660000000     0.025210000000    -0.0708631  
C241     C      0.739540000000     0.281950000000     0.985650000000    -0.0505469  
C242     C      0.627360000000     0.342110000000     0.042430000000     0.132567   
C243     C      0.679550000000     0.398680000000     0.030080000000     0.0164015  
C244     C      0.782330000000     0.247580000000     0.051790000000    -0.0544219  
C245     C      0.144300000000     0.798440000000     0.018570000000    -0.0352014  
C246     C      0.346050000000     0.699950000000     0.005110000000    -0.0439566  
C247     C      0.326930000000     0.613480000000     0.019070000000     0.0126615  
C248     C      0.380180000000     0.670850000000     0.018600000000     0.0112837  
C249     C      0.257140000000     0.734190000000     0.051260000000    -0.0523924  
C250     C      0.231860000000     0.758950000000     0.972970000000    -0.0466155  
C251     C      0.274820000000     0.716140000000     0.016460000000     0.0555414  
C252     C      0.295380000000     0.645490000000     0.005570000000    -0.0444592  
C253     C      0.214510000000     0.777330000000     0.007750000000     0.0582419  
C254     C      0.198520000000     0.849070000000     0.018690000000    -0.0633757  
C255     C      0.227150000000     0.764550000000     0.047090000000    -0.0559814  
C256     C      0.170060000000     0.883330000000     0.003800000000     0.126366   
C257     C      0.112410000000     0.829560000000     0.003880000000     0.00742485 
C258     C      0.261760000000     0.728540000000     0.977140000000    -0.0495532  
C259     C      0.308540000000     0.348590000000     0.022210000000    -0.0333499  
C260     C      0.209940000000     0.146290000000     0.000210000000    -0.0419833  
C261     C      0.124800000000     0.172110000000     0.010480000000    -0.00904487 
C262     C      0.178150000000     0.114320000000     0.013310000000     0.0067467  
C263     C      0.243450000000     0.230680000000     0.972940000000    -0.0487557  
C264     C      0.278870000000     0.263080000000     0.044290000000    -0.0554926  
C265     C      0.230410000000     0.216700000000     0.011720000000     0.0581214  
C266     C      0.159500000000     0.200580000000     0.997320000000    -0.0147359  
C267     C      0.290720000000     0.278090000000     0.005550000000     0.0602628  
C268     C      0.362010000000     0.298200000000     0.012430000000    -0.0774251  
C269     C      0.273240000000     0.261320000000     0.970050000000    -0.0445984  
C270     C      0.392040000000     0.329810000000     0.995050000000     0.145189   
C271     C      0.335930000000     0.383830000000     0.007640000000     0.00521928 
C272     C      0.248670000000     0.232750000000     0.047220000000    -0.0515967  
C273     C      0.706770000000     0.999520000000     0.648880000000    -0.0259918  
C274     C      0.805420000000     0.019310000000     0.850150000000    -0.0341835  
C275     C      0.891540000000     0.006760000000     0.828910000000     0.00032634 
C276     C      0.834570000000     0.003820000000     0.883410000000     0.00564229 
C277     C      0.777750000000     0.048890000000     0.763870000000    -0.0534502  
C278     C      0.737990000000     0.979040000000     0.733340000000    -0.0533951  
C279     C      0.788360000000     0.009670000000     0.778790000000     0.0610783  
C280     C      0.858880000000     0.021840000000     0.798950000000    -0.0313677  
C281     C      0.728280000000     0.018120000000     0.717470000000     0.0643762  
C282     C      0.656270000000     0.014890000000     0.701180000000    -0.0649946  
C283     C      0.748110000000     0.052900000000     0.733190000000    -0.0509886  
C284     C      0.624510000000     0.028410000000     0.669340000000     0.123633   
C285     C      0.678130000000     0.012610000000     0.614250000000     0.00749433 
C286     C      0.768050000000     0.974970000000     0.763550000000    -0.0477493  
C287     C      0.156730000000     0.999030000000     0.806050000000    -0.0289117  
C288     C      0.359980000000     0.992930000000     0.707320000000    -0.0323642  
C289     C      0.335650000000     0.974140000000     0.623210000000     0.00660652 
C290     C      0.391700000000     0.975590000000     0.677170000000     0.00649695 
C291     C      0.269200000000     0.955420000000     0.748920000000    -0.0546201  
C292     C      0.248270000000     0.036750000000     0.767270000000    -0.0484159  
C293     C      0.288720000000     0.987580000000     0.727930000000     0.0663493  
C294     C      0.306410000000     0.991580000000     0.655650000000    -0.0323456  
C295     C      0.228570000000     0.004590000000     0.788080000000     0.0595503  
C296     C      0.208110000000     0.000710000000     0.859740000000    -0.0679196  
C297     C      0.239410000000     0.963710000000     0.778750000000    -0.0508282  
C298     C      0.177720000000     0.018540000000     0.891080000000     0.132957   
C299     C      0.123780000000     0.016730000000     0.834540000000     0.0113288  
C300     C      0.278090000000     0.028470000000     0.737480000000    -0.059683   
C301     C      0.349440000000     0.023330000000     0.305440000000    -0.0370211  
C302     C      0.147500000000     0.996190000000     0.208130000000    -0.0268705  
C303     C      0.170610000000     0.009520000000     0.122510000000     0.00132967 
C304     C      0.114180000000     0.008120000000     0.177340000000     0.00142743 
C305     C      0.232950000000     0.047090000000     0.245320000000    -0.0524194  
C306     C      0.263440000000     0.970610000000     0.269970000000    -0.0496244  
C307     C      0.217460000000     0.011120000000     0.227410000000     0.0591628  
C308     C      0.200600000000     0.997560000000     0.156430000000    -0.0266641  
C309     C      0.279270000000     0.006560000000     0.287480000000     0.0621276  
C310     C      0.298500000000     0.016420000000     0.358720000000    -0.0634452  
C311     C      0.263560000000     0.044960000000     0.275290000000    -0.0565003  
C312     C      0.329580000000     0.000760000000     0.390190000000     0.128939   
C313     C      0.384220000000     0.009900000000     0.333960000000     0.0138319  
C314     C      0.232700000000     0.972700000000     0.240220000000    -0.0525903  
C315     C      0.646630000000     0.013620000000     0.299230000000    -0.0410619  
C316     C      0.849450000000     0.025580000000     0.201670000000    -0.0356158  
C317     C      0.828790000000     0.010540000000     0.115680000000     0.00505218 
C318     C      0.883070000000     0.010250000000     0.172810000000     0.00651184 
C319     C      0.760050000000     0.980830000000     0.236930000000    -0.0496405  
C320     C      0.735040000000     0.059510000000     0.260920000000    -0.0518899  
C321     C      0.778090000000     0.015400000000     0.218750000000     0.0588447  
C322     C      0.798410000000     0.025850000000     0.147970000000    -0.035058   
C323     C      0.717120000000     0.024920000000     0.279220000000     0.0612165  
C324     C      0.700120000000     0.015140000000     0.350790000000    -0.0675538  
C325     C      0.729810000000     0.985400000000     0.266950000000    -0.0537621  
C326     C      0.670380000000     0.029050000000     0.384400000000     0.131705   
C327     C      0.613970000000     0.027450000000     0.329950000000     0.0168066  
C328     C      0.765310000000     0.054930000000     0.230890000000    -0.0548396  
C329     C      0.015590000000     0.355060000000     0.704850000000    -0.045936   
C330     C      0.019740000000     0.152940000000     0.804150000000    -0.0408185  
C331     C      0.037340000000     0.175770000000     0.888900000000     0.0106205  
C332     C      0.036040000000     0.120670000000     0.834070000000     0.00952356 
C333     C      0.985010000000     0.235200000000     0.775440000000    -0.0516338  
C334     C      0.049990000000     0.272810000000     0.733750000000    -0.0540441  
C335     C      0.025730000000     0.224300000000     0.784940000000     0.0586539  
C336     C      0.021130000000     0.206010000000     0.856820000000    -0.0412378  
C337     C      0.009280000000     0.283760000000     0.724350000000     0.0568238  
C338     C      0.013240000000     0.302300000000     0.652460000000    -0.0728406  
C339     C      0.977010000000     0.264720000000     0.745370000000    -0.0463711  
C340     C      0.995290000000     0.331830000000     0.620540000000     0.141696   
C341     C      0.997630000000     0.387440000000     0.676070000000     0.0271401  
C342     C      0.058010000000     0.243280000000     0.763860000000    -0.0531394  
C343     C      0.006830000000     0.803940000000     0.856230000000    -0.0500289  
C344     C      0.007760000000     0.705290000000     0.653240000000    -0.0424881  
C345     C      0.023060000000     0.619940000000     0.675990000000     0.0103648  
C346     C      0.024070000000     0.675380000000     0.620910000000     0.0118374  
C347     C      0.046600000000     0.744420000000     0.743620000000    -0.0484408  
C348     C      0.966110000000     0.764090000000     0.765850000000    -0.0548284  
C349     C      0.013810000000     0.724030000000     0.724700000000     0.0557901  
C350     C      0.006860000000     0.652430000000     0.705750000000    -0.0411054  
C351     C      0.998890000000     0.784260000000     0.784950000000     0.0715829  
C352     C      0.002610000000     0.856320000000     0.803400000000    -0.0747711  
C353     C      0.039330000000     0.774420000000     0.773470000000    -0.0635078  
C354     C      0.984250000000     0.887740000000     0.833180000000     0.135275   
C355     C      0.989720000000     0.833090000000     0.888880000000     0.0264633  
C356     C      0.973360000000     0.734260000000     0.735880000000    -0.0468792  
C357     C      0.013820000000     0.705070000000     0.355700000000    -0.0415278  
C358     C      0.012090000000     0.803730000000     0.152450000000    -0.0451218  
C359     C      0.997100000000     0.889010000000     0.175970000000     0.0222056  
C360     C      0.994970000000     0.833550000000     0.120420000000     0.02078    
C361     C      0.046660000000     0.773140000000     0.234470000000    -0.0535788  
C362     C      0.980200000000     0.735350000000     0.273620000000    -0.0526909  
C363     C      0.006340000000     0.784640000000     0.224030000000     0.0542766  
C364     C      0.014090000000     0.856230000000     0.205020000000    -0.0456128  
C365     C      0.020510000000     0.723930000000     0.284180000000     0.0594675  
C366     C      0.013190000000     0.652310000000     0.303030000000    -0.0693902  
C367     C      0.053540000000     0.743020000000     0.264340000000    -0.052236   
C368     C      0.028840000000     0.619510000000     0.332980000000     0.132992   
C369     C      0.029480000000     0.674910000000     0.388160000000     0.0148513  
C370     C      0.973330000000     0.765480000000     0.243800000000    -0.0478563  
C371     C      0.985180000000     0.153370000000     0.205010000000    -0.0278974  
C372     C      0.991070000000     0.356900000000     0.304070000000    -0.0331062  
C373     C      0.971590000000     0.335300000000     0.388750000000     0.00882814 
C374     C      0.975930000000     0.390240000000     0.333560000000     0.010174   
C375     C      0.948160000000     0.267930000000     0.264220000000    -0.0528601  
C376     C      0.027920000000     0.242280000000     0.245870000000    -0.0559707  
C377     C      0.981370000000     0.285680000000     0.285020000000     0.0663957  
C378     C      0.986910000000     0.304390000000     0.356820000000    -0.0319056  
C379     C      0.994740000000     0.224520000000     0.225110000000     0.071782   
C380     C      0.990440000000     0.206130000000     0.153010000000    -0.049511   
C381     C      0.954650000000     0.237600000000     0.234450000000    -0.0578622  
C382     C      0.008820000000     0.176430000000     0.121490000000     0.119725   
C383     C      0.002220000000     0.120320000000     0.176160000000     0.00433428 
C384     C      0.021460000000     0.272610000000     0.275580000000    -0.0581528  
Eu1      Eu     0.000420000000     0.004850000000     0.076360000000     3.45046    
Eu2      Eu     0.000200000000     0.932470000000     0.003680000000     2.99886    
Eu3      Eu     0.005250000000     0.078490000000     0.003330000000     3.45475    
Eu4      Eu     0.930000000000     0.008790000000     0.001840000000     3.02147    
Eu5      Eu     0.075490000000     0.002170000000     0.004780000000     3.48191    
Eu6      Eu     0.004980000000     0.005770000000     0.930340000000     3.07584    
Eu7      Eu     0.000700000000     0.505330000000     0.431770000000     3.47986    
Eu8      Eu     0.007950000000     0.577530000000     0.504360000000     3.03038    
Eu9      Eu     0.997210000000     0.431820000000     0.505100000000     3.55462    
Eu10     Eu     0.929900000000     0.509630000000     0.506180000000     3.06897    
Eu11     Eu     0.075410000000     0.499810000000     0.503340000000     3.51041    
Eu12     Eu     0.004630000000     0.504110000000     0.577730000000     3.02485    
Eu13     Eu     0.500780000000     0.008700000000     0.430850000000     3.47474    
Eu14     Eu     0.430400000000     0.999570000000     0.505000000000     3.05495    
Eu15     Eu     0.575830000000     0.008810000000     0.502090000000     3.48468    
Eu16     Eu     0.508330000000     0.931400000000     0.498300000000     3.0476     
Eu17     Eu     0.498070000000     0.077090000000     0.508990000000     3.50707    
Eu18     Eu     0.505260000000     0.999820000000     0.576410000000     3.08356    
Eu19     Eu     0.506520000000     0.432180000000     0.008810000000     3.44993    
Eu20     Eu     0.575670000000     0.508360000000     0.007050000000     3.02557    
Eu21     Eu     0.430220000000     0.502260000000     0.002710000000     3.4776     
Eu22     Eu     0.504700000000     0.500840000000     0.932130000000     3.0459     
Eu23     Eu     0.501280000000     0.509540000000     0.077830000000     3.55722    
Eu24     Eu     0.499490000000     0.578200000000     0.001080000000     3.02583    
H1       H      0.961860000000     0.968890000000     0.070400000000    -0.17647    
H2       H      0.062800000000     0.062940000000     0.064860000000     0.416898   
H3       H      0.969020000000     0.075510000000     0.964360000000    -0.163891   
H4       H      0.070220000000     0.965160000000     0.966940000000    -0.172544   
H5       H      0.965860000000     0.545420000000     0.437110000000    -0.171226   
H6       H      0.056210000000     0.440670000000     0.443340000000     0.419192   
H7       H      0.960790000000     0.439170000000     0.543110000000    -0.185931   
H8       H      0.074100000000     0.537380000000     0.540990000000    -0.177443   
H9       H      0.466280000000     0.968360000000     0.433900000000    -0.173367   
H10      H      0.556770000000     0.072180000000     0.446540000000     0.416495   
H11      H      0.574380000000     0.968930000000     0.537110000000    -0.175755   
H12      H      0.462250000000     0.067080000000     0.546690000000    -0.184305   
H13      H      0.544980000000     0.436710000000     0.972450000000    -0.170459   
H14      H      0.444080000000     0.446450000000     0.066720000000     0.410732   
H15      H      0.433990000000     0.538050000000     0.963170000000    -0.167699   
H16      H      0.536980000000     0.548520000000     0.071890000000    -0.183287   
H17      H      0.434780000000     0.302200000000     0.234160000000     0.0409065  
H18      H      0.480610000000     0.157480000000     0.280750000000     0.0373405  
H19      H      0.482820000000     0.245020000000     0.377270000000     0.0584456  
H20      H      0.543050000000     0.331410000000     0.125840000000     0.0572775  
H21      H      0.441750000000     0.126950000000     0.335870000000     0.0450316  
H22      H      0.508480000000     0.376370000000     0.245330000000     0.0374624  
H23      H      0.501210000000     0.280160000000     0.157940000000     0.0381452  
H24      H      0.500350000000     0.428520000000     0.188550000000     0.0351244  
H25      H      0.492040000000     0.188000000000     0.428660000000     0.0213673  
H26      H      0.422030000000     0.249510000000     0.286740000000     0.0517334  
H27      H      0.489650000000     0.100380000000     0.331330000000     0.0339309  
H28      H      0.565020000000     0.283280000000     0.246980000000     0.0499362  
H29      H      0.525870000000     0.162410000000     0.312190000000     0.0376332  
H30      H      0.493940000000     0.332070000000     0.101300000000     0.0357608  
H31      H      0.462790000000     0.370090000000     0.214830000000     0.035357   
H32      H      0.458760000000     0.315100000000     0.164320000000     0.0341656  
H33      H      0.552310000000     0.230940000000     0.299830000000     0.0426873  
H34      H      0.526860000000     0.213020000000     0.368320000000     0.0431306  
H35      H      0.547870000000     0.400920000000     0.188090000000     0.0421589  
H36      H      0.554760000000     0.734130000000     0.202630000000     0.0483592  
H37      H      0.504870000000     0.878950000000     0.261280000000     0.0381935  
H38      H      0.523720000000     0.782820000000     0.347300000000     0.0582232  
H39      H      0.439700000000     0.685810000000     0.110520000000     0.0317859  
H40      H      0.549790000000     0.907730000000     0.312650000000     0.0463779  
H41      H      0.484650000000     0.657720000000     0.229600000000     0.0410161  
H42      H      0.479840000000     0.744400000000     0.132410000000     0.0363924  
H43      H      0.490720000000     0.600260000000     0.179090000000     0.0459397  
H44      H      0.522490000000     0.833300000000     0.404990000000     0.0235969  
H45      H      0.570570000000     0.788210000000     0.252790000000     0.0554275  
H46      H      0.499970000000     0.930130000000     0.319050000000     0.0360377  
H47      H      0.426020000000     0.746140000000     0.230450000000     0.0456685  
H48      H      0.465590000000     0.867490000000     0.298540000000     0.0401426  
H49      H      0.485980000000     0.687760000000     0.080810000000     0.037361   
H50      H      0.528120000000     0.662810000000     0.195710000000     0.0539723  
H51      H      0.525300000000     0.713460000000     0.138790000000     0.0443059  
H52      H      0.441960000000     0.799760000000     0.281190000000     0.0432547  
H53      H      0.477220000000     0.812530000000     0.349160000000     0.0460845  
H54      H      0.442800000000     0.627270000000     0.176260000000     0.0329148  
H55      H      0.438650000000     0.721660000000     0.760410000000     0.0453855  
H56      H      0.518430000000     0.763490000000     0.630920000000     0.0375788  
H57      H      0.518180000000     0.851000000000     0.727450000000     0.0584196  
H58      H      0.463880000000     0.604920000000     0.819920000000     0.0344656  
H59      H      0.556050000000     0.821110000000     0.603970000000     0.0448221  
H60      H      0.496890000000     0.729590000000     0.850670000000     0.0368092  
H61      H      0.503800000000     0.632390000000     0.764310000000     0.036518   
H62      H      0.506810000000     0.679090000000     0.908290000000     0.0367493  
H63      H      0.506820000000     0.907470000000     0.676150000000     0.0244865  
H64      H      0.449350000000     0.773990000000     0.707150000000     0.0413054  
H65      H      0.506840000000     0.820100000000     0.579460000000     0.0356143  
H66      H      0.569470000000     0.711490000000     0.776860000000     0.0419066  
H67      H      0.473310000000     0.794120000000     0.640280000000     0.0372544  
H68      H      0.513770000000     0.581820000000     0.821940000000     0.0381016  
H69      H      0.543000000000     0.699240000000     0.846810000000     0.0383633  
H70      H      0.546980000000     0.643300000000     0.797140000000     0.0380673  
H71      H      0.580200000000     0.763710000000     0.723400000000     0.0526866  
H72      H      0.473540000000     0.844850000000     0.695680000000     0.0439117  
H73      H      0.458920000000     0.674460000000     0.881630000000     0.0346937  
H74      H      0.571700000000     0.266230000000     0.801880000000     0.0464027  
H75      H      0.487150000000     0.133840000000     0.743020000000     0.0412364  
H76      H      0.536710000000     0.222720000000     0.661510000000     0.0586718  
H77      H      0.474700000000     0.318320000000     0.907680000000     0.060401   
H78      H      0.527270000000     0.094480000000     0.695060000000     0.05691    
H79      H      0.503100000000     0.351420000000     0.780170000000     0.0417384  
H80      H      0.511700000000     0.264100000000     0.876240000000     0.0413339  
H81      H      0.516210000000     0.408300000000     0.831430000000     0.0506287  
H82      H      0.528260000000     0.174170000000     0.602340000000     0.0309453  
H83      H      0.576460000000     0.211060000000     0.750760000000     0.0594692  
H84      H      0.474300000000     0.086170000000     0.682880000000     0.0372021  
H85      H      0.441330000000     0.274260000000     0.780990000000     0.0535438  
H86      H      0.455430000000     0.154970000000     0.702790000000     0.0445853  
H87      H      0.525950000000     0.322380000000     0.926420000000     0.0409426  
H88      H      0.549710000000     0.346050000000     0.809400000000     0.0513646  
H89      H      0.554620000000     0.296790000000     0.863920000000     0.0412273  
H90      H      0.446550000000     0.220890000000     0.728010000000     0.0478597  
H91      H      0.484520000000     0.205760000000     0.655270000000     0.054703   
H92      H      0.467160000000     0.383940000000     0.835010000000     0.0448273  
H93      H      0.774900000000     0.299210000000     0.560320000000     0.0472682  
H94      H      0.628610000000     0.246350000000     0.514080000000     0.0402429  
H95      H      0.725710000000     0.160110000000     0.506040000000     0.0627248  
H96      H      0.818060000000     0.406240000000     0.455450000000     0.0326587  
H97      H      0.604260000000     0.188990000000     0.553370000000     0.0587728  
H98      H      0.847300000000     0.281930000000     0.485790000000     0.0411508  
H99      H      0.761380000000     0.379310000000     0.494760000000     0.0369764  
H100     H      0.905010000000     0.331520000000     0.496380000000     0.0456649  
H101     H      0.675210000000     0.102350000000     0.502610000000     0.0323074  
H102     H      0.722240000000     0.246510000000     0.571660000000     0.0593873  
H103     H      0.577290000000     0.188630000000     0.505480000000     0.0368276  
H104     H      0.755630000000     0.290300000000     0.429540000000     0.0463473  
H105     H      0.635250000000     0.215940000000     0.468280000000     0.0383195  
H106     H      0.818680000000     0.429660000000     0.505350000000     0.0368874  
H107     H      0.843670000000     0.310900000000     0.532890000000     0.0508533  
H108     H      0.793750000000     0.367520000000     0.538100000000     0.0426753  
H109     H      0.702850000000     0.237450000000     0.441010000000     0.0454161  
H110     H      0.689550000000     0.165230000000     0.464660000000     0.0569902  
H111     H      0.877470000000     0.338890000000     0.449260000000     0.0334757  
H112     H      0.747040000000     0.784100000000     0.428980000000     0.0497487  
H113     H      0.780590000000     0.660670000000     0.517070000000     0.0379397  
H114     H      0.877700000000     0.747130000000     0.510650000000     0.0586035  
H115     H      0.627440000000     0.833070000000     0.449670000000     0.0569571  
H116     H      0.835600000000     0.630650000000     0.556300000000     0.0445381  
H117     H      0.744960000000     0.879220000000     0.483460000000     0.038778   
H118     H      0.658970000000     0.781970000000     0.492590000000     0.0395899  
H119     H      0.687850000000     0.930850000000     0.490860000000     0.0404953  
H120     H      0.928280000000     0.689200000000     0.502500000000     0.023566   
H121     H      0.799660000000     0.731880000000     0.442710000000     0.0420718  
H122     H      0.830580000000     0.602800000000     0.509080000000     0.0356918  
H123     H      0.735320000000     0.806600000000     0.558970000000     0.0448851  
H124     H      0.811470000000     0.663830000000     0.471240000000     0.0382164  
H125     H      0.601670000000     0.832570000000     0.498290000000     0.0431609  
H126     H      0.715040000000     0.873320000000     0.529650000000     0.0411371  
H127     H      0.664900000000     0.817540000000     0.534690000000     0.0415372  
H128     H      0.787760000000     0.754100000000     0.572760000000     0.0533834  
H129     H      0.867840000000     0.713700000000     0.467830000000     0.043979   
H130     H      0.686620000000     0.901790000000     0.444110000000     0.0412705  
H131     H      0.205800000000     0.271720000000     0.569350000000     0.0421334  
H132     H      0.262000000000     0.130400000000     0.511370000000     0.0378249  
H133     H      0.347660000000     0.228180000000     0.518460000000     0.0632203  
H134     H      0.100570000000     0.319530000000     0.464760000000     0.0301981  
H135     H      0.318580000000     0.102210000000     0.549340000000     0.0436692  
H136     H      0.225090000000     0.349240000000     0.500100000000     0.0382472  
H137     H      0.128200000000     0.262530000000     0.502500000000     0.0364206  
H138     H      0.174650000000     0.406360000000     0.511550000000     0.0381458  
H139     H      0.405180000000     0.178010000000     0.505900000000     0.0382971  
H140     H      0.259010000000     0.219030000000     0.578370000000     0.0531318  
H141     H      0.319620000000     0.080470000000     0.498740000000     0.0375692  
H142     H      0.219350000000     0.262890000000     0.437880000000     0.0474087  
H143     H      0.293740000000     0.142580000000     0.467690000000     0.0418398  
H144     H      0.077630000000     0.320090000000     0.514800000000     0.0370662  
H145     H      0.194200000000     0.343520000000     0.545670000000     0.0393175  
H146     H      0.138670000000     0.293590000000     0.547140000000     0.0382345  
H147     H      0.272760000000     0.210470000000     0.446900000000     0.0461682  
H148     H      0.343100000000     0.198580000000     0.472110000000     0.0613842  
H149     H      0.170680000000     0.381610000000     0.462500000000     0.0319998  
H150     H      0.301570000000     0.765050000000     0.559730000000     0.0419379  
H151     H      0.158690000000     0.727400000000     0.503660000000     0.0384955  
H152     H      0.244660000000     0.630560000000     0.491420000000     0.0582974  
H153     H      0.331820000000     0.885730000000     0.465890000000     0.0580542  
H154     H      0.125180000000     0.672270000000     0.538020000000     0.0429739  
H155     H      0.377350000000     0.762780000000     0.488110000000     0.0370647  
H156     H      0.280770000000     0.848540000000     0.502780000000     0.0397212  
H157     H      0.428530000000     0.819030000000     0.505140000000     0.0365704  
H158     H      0.186300000000     0.580470000000     0.480360000000     0.0237573  
H159     H      0.248220000000     0.711980000000     0.564530000000     0.0533619  
H160     H      0.101260000000     0.676990000000     0.488750000000     0.0370436  
H161     H      0.286110000000     0.768670000000     0.428200000000     0.049071   
H162     H      0.163160000000     0.699350000000     0.456140000000     0.0402817  
H163     H      0.332330000000     0.904170000000     0.517760000000     0.0423882  
H164     H      0.369510000000     0.788090000000     0.536720000000     0.0374825  
H165     H      0.314930000000     0.837470000000     0.544900000000     0.0373137  
H166     H      0.233010000000     0.715230000000     0.433010000000     0.043739   
H167     H      0.210780000000     0.643550000000     0.449880000000     0.0465403  
H168     H      0.403840000000     0.823260000000     0.456190000000     0.0384854  
H169     H      0.783440000000     0.562900000000     0.289460000000     0.0427321  
H170     H      0.731150000000     0.506610000000     0.151690000000     0.0409037  
H171     H      0.637830000000     0.512790000000     0.242080000000     0.0587705  
H172     H      0.885270000000     0.453420000000     0.334200000000     0.0343879  
H173     H      0.678350000000     0.546830000000     0.120270000000     0.0632793  
H174     H      0.767360000000     0.498690000000     0.370160000000     0.0368095  
H175     H      0.856620000000     0.489000000000     0.276000000000     0.0373486  
H176     H      0.822690000000     0.510350000000     0.422150000000     0.03608    
H177     H      0.584540000000     0.501900000000     0.186610000000     0.0243982  
H178     H      0.730350000000     0.572810000000     0.236970000000     0.0561573  
H179     H      0.677870000000     0.496920000000     0.096860000000     0.0424898  
H180     H      0.764660000000     0.431720000000     0.283850000000     0.0461118  
H181     H      0.697450000000     0.463430000000     0.160010000000     0.0425908  
H182     H      0.912530000000     0.500870000000     0.327460000000     0.0379185  
H183     H      0.799960000000     0.542080000000     0.358890000000     0.0390257  
H184     H      0.851670000000     0.536480000000     0.304220000000     0.0391443  
H185     H      0.711590000000     0.441670000000     0.231220000000     0.0448868  
H186     H      0.644180000000     0.467190000000     0.211580000000     0.047186   
H187     H      0.823100000000     0.460030000000     0.399540000000     0.033368   
H188     H      0.283300000000     0.446510000000     0.217590000000     0.040956   
H189     H      0.231510000000     0.496530000000     0.358780000000     0.0383936  
H190     H      0.137980000000     0.494520000000     0.268370000000     0.0620237  
H191     H      0.384090000000     0.559040000000     0.175770000000     0.0347383  
H192     H      0.176730000000     0.457140000000     0.388960000000     0.038729   
H193     H      0.266900000000     0.512820000000     0.139090000000     0.0365746  
H194     H      0.356470000000     0.521060000000     0.233070000000     0.0365115  
H195     H      0.322290000000     0.503490000000     0.086450000000     0.033709   
H196     H      0.085030000000     0.506160000000     0.323870000000     0.0339809  
H197     H      0.230770000000     0.434560000000     0.270350000000     0.0520888  
H198     H      0.178810000000     0.506260000000     0.413910000000     0.0385855  
H199     H      0.264630000000     0.577320000000     0.228500000000     0.0462498  
H200     H      0.199250000000     0.540980000000     0.351520000000     0.0443905  
H201     H      0.412300000000     0.511990000000     0.181050000000     0.0343579  
H202     H      0.300170000000     0.469620000000     0.148910000000     0.0358755  
H203     H      0.352130000000     0.474420000000     0.203410000000     0.0358949  
H204     H      0.212360000000     0.565410000000     0.281440000000     0.047429   
H205     H      0.145550000000     0.539640000000     0.299160000000     0.0623259  
H206     H      0.321890000000     0.553160000000     0.110410000000     0.0339247  
H207     H      0.225360000000     0.420040000000     0.720400000000     0.042764   
H208     H      0.369210000000     0.478610000000     0.769120000000     0.0392517  
H209     H      0.275120000000     0.474580000000     0.858930000000     0.0571585  
H210     H      0.185670000000     0.520270000000     0.608180000000     0.0561632  
H211     H      0.399260000000     0.441960000000     0.825800000000     0.0491601  
H212     H      0.149270000000     0.492420000000     0.734180000000     0.0365702  
H213     H      0.238200000000     0.480970000000     0.640180000000     0.0405532  
H214     H      0.093360000000     0.479670000000     0.681300000000     0.0356159  
H215     H      0.326930000000     0.483890000000     0.914740000000     0.0235803  
H216     H      0.279070000000     0.412340000000     0.772770000000     0.0558428  
H217     H      0.421410000000     0.492340000000     0.824490000000     0.0370111  
H218     H      0.237500000000     0.551880000000     0.727380000000     0.048731   
H219     H      0.358750000000     0.523360000000     0.800080000000     0.0375844  
H220     H      0.181130000000     0.469100000000     0.588500000000     0.0421905  
H221     H      0.153960000000     0.445320000000     0.705450000000     0.0376417  
H222     H      0.204170000000     0.438910000000     0.651840000000     0.0376356  
H223     H      0.290680000000     0.544180000000     0.780310000000     0.0420676  
H224     H      0.305490000000     0.520350000000     0.852890000000     0.043744   
H225     H      0.118390000000     0.528560000000     0.678620000000     0.0376109  
H226     H      0.792380000000     0.453960000000     0.726910000000     0.044525   
H227     H      0.738950000000     0.507360000000     0.869820000000     0.0383638  
H228     H      0.649560000000     0.500690000000     0.775560000000     0.058065   
H229     H      0.896380000000     0.561370000000     0.683670000000     0.0372894  
H230     H      0.684730000000     0.467150000000     0.899360000000     0.0454906  
H231     H      0.774680000000     0.525730000000     0.650500000000     0.0373351  
H232     H      0.868560000000     0.522770000000     0.740510000000     0.0371886  
H233     H      0.826710000000     0.515640000000     0.594970000000     0.0378458  
H234     H      0.593820000000     0.510060000000     0.828400000000     0.0230288  
H235     H      0.739880000000     0.442500000000     0.779760000000     0.0539116  
H236     H      0.683140000000     0.517190000000     0.922350000000     0.0375728  
H237     H      0.776590000000     0.585010000000     0.739540000000     0.0467631  
H238     H      0.705630000000     0.550530000000     0.860180000000     0.0374672  
H239     H      0.921330000000     0.512260000000     0.685520000000     0.038829   
H240     H      0.805080000000     0.479800000000     0.656620000000     0.0414716  
H241     H      0.859670000000     0.478050000000     0.708980000000     0.0412501  
H242     H      0.723720000000     0.573520000000     0.792050000000     0.0413838  
H243     H      0.654050000000     0.546300000000     0.806370000000     0.043349   
H244     H      0.831440000000     0.563660000000     0.621680000000     0.0370111  
H245     H      0.774740000000     0.799240000000     0.053410000000     0.0430979  
H246     H      0.633880000000     0.744320000000     0.994960000000     0.0368621  
H247     H      0.729100000000     0.656350000000     0.005830000000     0.0498849  
H248     H      0.825100000000     0.900760000000     0.946560000000     0.0392077  
H249     H      0.603470000000     0.690730000000     0.035190000000     0.048576   
H250     H      0.853950000000     0.778840000000     0.986420000000     0.0371653  
H251     H      0.765890000000     0.874620000000     0.982460000000     0.0365911  
H252     H      0.909680000000     0.830290000000     0.998840000000     0.0403254  
H253     H      0.677580000000     0.599380000000     0.997680000000     0.0304419  
H254     H      0.721120000000     0.747190000000     0.063200000000     0.0556984  
H255     H      0.582700000000     0.686850000000     0.984380000000     0.0412701  
H256     H      0.767940000000     0.781560000000     0.922280000000     0.0480762  
H257     H      0.645320000000     0.710200000000     0.952860000000     0.0347081  
H258     H      0.821150000000     0.926700000000     0.995020000000     0.0395758  
H259     H      0.845860000000     0.810390000000     0.031260000000     0.0341117  
H260     H      0.794710000000     0.866060000000     0.028970000000     0.0335166  
H261     H      0.714470000000     0.729210000000     0.932150000000     0.0427533  
H262     H      0.699000000000     0.659230000000     0.959690000000     0.0400783  
H263     H      0.886120000000     0.834250000000     0.949190000000     0.0410628  
H264     H      0.798250000000     0.234300000000     0.077770000000     0.0413705  
H265     H      0.740990000000     0.375660000000     0.021080000000     0.0389811  
H266     H      0.653440000000     0.280910000000     0.039270000000     0.0578508  
H267     H      0.897740000000     0.188810000000     0.967390000000     0.0389552  
H268     H      0.687630000000     0.406130000000     0.062420000000     0.0454897  
H269     H      0.776050000000     0.155730000000     0.009050000000     0.0343619  
H270     H      0.870830000000     0.244780000000     0.007060000000     0.0351592  
H271     H      0.828540000000     0.099730000000     0.017250000000     0.0369749  
H272     H      0.596360000000     0.331800000000     0.032680000000     0.0221019  
H273     H      0.746440000000     0.287740000000     0.089930000000     0.052518   
H274     H      0.684410000000     0.426980000000     0.011550000000     0.035842   
H275     H      0.775380000000     0.241760000000     0.947510000000     0.0463468  
H276     H      0.705700000000     0.363040000000     0.980320000000     0.0457758  
H277     H      0.923320000000     0.188500000000     0.016110000000     0.0393455  
H278     H      0.809170000000     0.161890000000     0.052960000000     0.0379699  
H279     H      0.863550000000     0.213070000000     0.051890000000     0.0379151  
H280     H      0.722970000000     0.294590000000     0.959760000000     0.0431838  
H281     H      0.654220000000     0.308600000000     0.991430000000     0.0512103  
H282     H      0.829180000000     0.124990000000     0.968290000000     0.0395477  
H283     H      0.274970000000     0.715060000000     0.949780000000     0.0413459  
H284     H      0.135020000000     0.767410000000     0.007510000000     0.0347884  
H285     H      0.230400000000     0.855870000000     0.008460000000     0.0566942  
H286     H      0.323360000000     0.607980000000     0.052590000000     0.0336638  
H287     H      0.106140000000     0.824070000000     0.970740000000     0.0478951  
H288     H      0.353440000000     0.731340000000     0.016640000000     0.0370114  
H289     H      0.264790000000     0.636050000000     0.017470000000     0.0366578  
H290     H      0.408760000000     0.679880000000     0.002300000000     0.0342888  
H291     H      0.177920000000     0.911670000000     0.021260000000     0.0240739  
H292     H      0.222370000000     0.768550000000     0.942560000000     0.0518081  
H293     H      0.083360000000     0.823750000000     0.020840000000     0.0348466  
H294     H      0.266940000000     0.724920000000     0.081670000000     0.044947   
H295     H      0.144650000000     0.797830000000     0.052790000000     0.0365029  
H296     H      0.319960000000     0.584100000000     0.003020000000     0.0339069  
H297     H      0.345110000000     0.701110000000     0.970920000000     0.0439616  
H298     H      0.293830000000     0.646070000000     0.971390000000     0.0434764  
H299     H      0.214150000000     0.778300000000     0.074420000000     0.0408662  
H300     H      0.198570000000     0.848640000000     0.052910000000     0.0434729  
H301     H      0.385640000000     0.675090000000     0.052050000000     0.0330383  
H302     H      0.239130000000     0.221960000000     0.077210000000     0.048256   
H303     H      0.276100000000     0.356570000000     0.015110000000     0.0390296  
H304     H      0.369440000000     0.267340000000     0.999570000000     0.0649289  
H305     H      0.117830000000     0.178120000000     0.043280000000     0.0538766  
H306     H      0.325720000000     0.393470000000     0.976640000000     0.0694969  
H307     H      0.240260000000     0.137010000000     0.012910000000     0.0406066  
H308     H      0.151950000000     0.232350000000     0.007620000000     0.0332541  
H309     H      0.184850000000     0.085110000000     0.996870000000     0.0564257  
H310     H      0.423260000000     0.322390000000     0.006590000000     0.0129489  
H311     H      0.292480000000     0.275190000000     0.072090000000     0.0411756  
H312     H      0.331070000000     0.410490000000     0.028510000000     0.0314227  
H313     H      0.230190000000     0.218390000000     0.945050000000     0.0475858  
H314     H      0.311460000000     0.345240000000     0.056140000000     0.0333787  
H315     H      0.097000000000     0.180150000000     0.992360000000     0.0507081  
H316     H      0.212410000000     0.146660000000     0.966080000000     0.0597667  
H317     H      0.161550000000     0.200700000000     0.963160000000     0.0406971  
H318     H      0.282520000000     0.272370000000     0.940070000000     0.060815   
H319     H      0.365500000000     0.296320000000     0.046430000000     0.0435806  
H320     H      0.181860000000     0.108170000000     0.046720000000     0.0319603  
H321     H      0.775530000000     0.944710000000     0.775260000000     0.0515949  
H322     H      0.738960000000     0.004940000000     0.638810000000     0.0390271  
H323     H      0.650490000000     0.031670000000     0.730440000000     0.0601902  
H324     H      0.898610000000     0.974240000000     0.821710000000     0.0606271  
H325     H      0.687310000000     0.043630000000     0.603680000000     0.0682137  
H326     H      0.774060000000     0.007740000000     0.857270000000     0.0369358  
H327     H      0.867820000000     0.012130000000     0.767390000000     0.0402014  
H328     H      0.826920000000     0.019930000000     0.912570000000     0.0376118  
H329     H      0.594110000000     0.016690000000     0.679460000000     0.0312928  
H330     H      0.722480000000     0.951760000000     0.722350000000     0.0471879  
H331     H      0.682400000000     0.991120000000     0.588000000000     0.0428144  
H332     H      0.792420000000     0.076240000000     0.775790000000     0.0439798  
H333     H      0.702820000000     0.965970000000     0.654480000000     0.0421417  
H334     H      0.920040000000     0.024800000000     0.823560000000     0.0411572  
H335     H      0.804460000000     0.053570000000     0.850650000000     0.0390279  
H336     H      0.857910000000     0.056070000000     0.799680000000     0.0380838  
H337     H      0.740430000000     0.083180000000     0.721660000000     0.0593162  
H338     H      0.652350000000     0.981430000000     0.707460000000     0.0571477  
H339     H      0.828880000000     0.970470000000     0.888460000000     0.042308   
H340     H      0.292660000000     0.053910000000     0.721780000000     0.0457277  
H341     H      0.149510000000     0.008610000000     0.774020000000     0.0346418  
H342     H      0.239670000000     0.010970000000     0.867820000000     0.0620285  
H343     H      0.330830000000     0.940350000000     0.621150000000     0.0333762  
H344     H      0.120280000000     0.050090000000     0.827890000000     0.0444446  
H345     H      0.368500000000     0.982900000000     0.738880000000     0.0380262  
H346     H      0.274850000000     0.980580000000     0.648620000000     0.0366563  
H347     H      0.421800000000     0.990120000000     0.683960000000     0.0405917  
H348     H      0.184280000000     0.004000000000     0.921290000000     0.0330636  
H349     H      0.240290000000     0.068350000000     0.774090000000     0.0528159  
H350     H      0.094140000000     0.001640000000     0.826970000000     0.0366502  
H351     H      0.277020000000     0.923820000000     0.741950000000     0.0467862  
H352     H      0.155620000000     0.964820000000     0.807430000000     0.0406023  
H353     H      0.327260000000     0.987590000000     0.592970000000     0.0400046  
H354     H      0.361060000000     0.027150000000     0.706350000000     0.0395742  
H355     H      0.306490000000     0.025770000000     0.653660000000     0.0396362  
H356     H      0.224700000000     0.938270000000     0.794330000000     0.0444387  
H357     H      0.207500000000     0.966520000000     0.861840000000     0.0587399  
H358     H      0.394910000000     0.942010000000     0.682780000000     0.0339965  
H359     H      0.221100000000     0.944460000000     0.227020000000     0.0414768  
H360     H      0.357770000000     0.014670000000     0.273420000000     0.0365986  
H361     H      0.267610000000     0.004000000000     0.366430000000     0.0569955  
H362     H      0.174620000000     0.042750000000     0.115420000000     0.0314667  
H363     H      0.393820000000     0.978210000000     0.325390000000     0.0434807  
H364     H      0.138240000000     0.007650000000     0.239000000000     0.0328718  
H365     H      0.231370000000     0.010010000000     0.148360000000     0.0330896  
H366     H      0.086230000000     0.989730000000     0.184210000000     0.0390702  
H367     H      0.322160000000     0.014890000000     0.420400000000     0.0226401  
H368     H      0.275140000000     0.940890000000     0.279340000000     0.0534263  
H369     H      0.410950000000     0.030430000000     0.328400000000     0.0365506  
H370     H      0.221370000000     0.076820000000     0.235830000000     0.0467367  
H371     H      0.346220000000     0.057410000000     0.306680000000     0.0392831  
H372     H      0.178910000000     0.992040000000     0.094340000000     0.0412713  
H373     H      0.149790000000     0.962040000000     0.209730000000     0.0366778  
H374     H      0.202970000000     0.963410000000     0.157830000000     0.0367603  
H375     H      0.275120000000     0.073110000000     0.288710000000     0.0429689  
H376     H      0.296610000000     0.050590000000     0.360420000000     0.0455653  
H377     H      0.106160000000     0.041050000000     0.181970000000     0.0327116  
H378     H      0.778850000000     0.082120000000     0.217340000000     0.0415577  
H379     H      0.637520000000     0.024600000000     0.268140000000     0.0378653  
H380     H      0.731420000000     0.026690000000     0.358200000000     0.0592705  
H381     H      0.822560000000     0.977500000000     0.109420000000     0.0363052  
H382     H      0.607820000000     0.060760000000     0.325260000000     0.0372122  
H383     H      0.856710000000     0.014790000000     0.233310000000     0.0358978  
H384     H      0.767160000000     0.015260000000     0.139130000000     0.034757   
H385     H      0.911820000000     0.027170000000     0.180100000000     0.0369922  
H386     H      0.678930000000     0.012530000000     0.413060000000     0.0244503  
H387     H      0.725620000000     0.090070000000     0.270170000000     0.0518561  
H388     H      0.585120000000     0.010590000000     0.322970000000     0.0355675  
H389     H      0.769660000000     0.950260000000     0.227900000000     0.0462551  
H390     H      0.647660000000     0.979390000000     0.298560000000     0.0446982  
H391     H      0.823050000000     0.027640000000     0.086640000000     0.0355891  
H392     H      0.849390000000     0.059840000000     0.201910000000     0.0379349  
H393     H      0.798340000000     0.060110000000     0.148190000000     0.0372955  
H394     H      0.716550000000     0.958190000000     0.280710000000     0.0442351  
H395     H      0.701490000000     0.980910000000     0.350610000000     0.0499573  
H396     H      0.888830000000     0.977140000000     0.179180000000     0.0359274  
H397     H      0.089450000000     0.235120000000     0.770820000000     0.0475654  
H398     H      0.006600000000     0.363010000000     0.736890000000     0.0383905  
H399     H      0.003000000000     0.270420000000     0.645310000000     0.0589664  
H400     H      0.071180000000     0.179400000000     0.891200000000     0.039316   
H401     H      0.964590000000     0.391600000000     0.683470000000     0.0423872  
H402     H      0.030290000000     0.144740000000     0.772670000000     0.0379109  
H403     H      0.032780000000     0.237260000000     0.864490000000     0.0380665  
H404     H      0.021940000000     0.090590000000     0.826130000000     0.036934   
H405     H      0.010260000000     0.324950000000     0.590610000000     0.0189369  
H406     H      0.075460000000     0.287090000000     0.717900000000     0.0410053  
H407     H      0.013300000000     0.417140000000     0.682420000000     0.0306857  
H408     H      0.959520000000     0.220900000000     0.791200000000     0.0427298  
H409     H      0.049680000000     0.355930000000     0.702880000000     0.0394     
H410     H      0.023970000000     0.184110000000     0.919190000000     0.0376358  
H411     H      0.985590000000     0.152200000000     0.804500000000     0.0433883  
H412     H      0.987010000000     0.206660000000     0.858420000000     0.0430164  
H413     H      0.945570000000     0.272890000000     0.738390000000     0.0527433  
H414     H      0.047330000000     0.302890000000     0.650180000000     0.045348   
H415     H      0.069730000000     0.117730000000     0.829630000000     0.0388826  
H416     H      0.947480000000     0.719170000000     0.721530000000     0.0459048  
H417     H      0.997980000000     0.771950000000     0.864560000000     0.0436679  
H418     H      0.991640000000     0.863220000000     0.771740000000     0.0633373  
H419     H      0.056520000000     0.615960000000     0.681290000000     0.0355519  
H420     H      0.956770000000     0.825840000000     0.893890000000     0.0430893  
H421     H      0.018870000000     0.736720000000     0.645450000000     0.0425564  
H422     H      0.017300000000     0.644330000000     0.737290000000     0.0368828  
H423     H      0.009670000000     0.683180000000     0.590960000000     0.0493503  
H424     H      0.996470000000     0.918580000000     0.824990000000     0.0240095  
H425     H      0.934860000000     0.771570000000     0.774280000000     0.056283   
H426     H      0.006100000000     0.826830000000     0.918180000000     0.0321569  
H427     H      0.077850000000     0.736980000000     0.735160000000     0.0454617  
H428     H      0.040930000000     0.805880000000     0.856250000000     0.042521   
H429     H      0.007900000000     0.590220000000     0.683380000000     0.0365554  
H430     H      0.973630000000     0.705530000000     0.652150000000     0.0601956  
H431     H      0.972710000000     0.651820000000     0.705360000000     0.0460857  
H432     H      0.065140000000     0.789820000000     0.787610000000     0.0444757  
H433     H      0.036640000000     0.859280000000     0.803450000000     0.0476252  
H434     H      0.057690000000     0.680100000000     0.617640000000     0.0365931  
H435     H      0.942170000000     0.773990000000     0.236040000000     0.0450387  
H436     H      0.025140000000     0.736370000000     0.363690000000     0.038206   
H437     H      0.023480000000     0.644330000000     0.271400000000     0.0580187  
H438     H      0.964050000000     0.893770000000     0.182960000000     0.0310347  
H439     H      0.063090000000     0.679310000000     0.391890000000     0.0452947  
H440     H      0.001130000000     0.772210000000     0.144820000000     0.0367558  
H441     H      0.004640000000     0.864170000000     0.236910000000     0.0370906  
H442     H      0.009690000000     0.826520000000     0.090410000000     0.0310366  
H443     H      0.013130000000     0.590160000000     0.325340000000     0.0221264  
H444     H      0.954140000000     0.721030000000     0.288400000000     0.0412702  
H445     H      0.014790000000     0.682840000000     0.417940000000     0.035417   
H446     H      0.072690000000     0.787430000000     0.219600000000     0.0409537  
H447     H      0.979680000000     0.705610000000     0.356540000000     0.0415803  
H448     H      0.013210000000     0.918440000000     0.182500000000     0.032437   
H449     H      0.046220000000     0.803740000000     0.150760000000     0.0397532  
H450     H      0.048230000000     0.856630000000     0.203690000000     0.0402108  
H451     H      0.084690000000     0.734500000000     0.272110000000     0.051628   
H452     H      0.979030000000     0.651960000000     0.303150000000     0.0475416  
H453     H      0.961520000000     0.827830000000     0.116940000000     0.0317205  
H454     H      0.047660000000     0.285830000000     0.291120000000     0.0463977  
H455     H      0.993350000000     0.144870000000     0.237110000000     0.0364342  
H456     H      0.001430000000     0.237860000000     0.146300000000     0.0524502  
H457     H      0.937700000000     0.332440000000     0.391310000000     0.0339683  
H458     H      0.034640000000     0.114010000000     0.184680000000     0.0398189  
H459     H      0.981410000000     0.365390000000     0.272370000000     0.0406183  
H460     H      0.974140000000     0.273600000000     0.364560000000     0.0365707  
H461     H      0.992240000000     0.419330000000     0.326110000000     0.0465346  
H462     H      0.995740000000     0.184180000000     0.090900000000     0.0274353  
H463     H      0.058920000000     0.232560000000     0.238900000000     0.0548989  
H464     H      0.984610000000     0.091500000000     0.181420000000     0.0394832  
H465     H      0.917170000000     0.277710000000     0.271120000000     0.0456976  
H466     H      0.951110000000     0.153990000000     0.202600000000     0.0357284  
H467     H      0.984910000000     0.326810000000     0.419030000000     0.0372874  
H468     H      0.025210000000     0.355940000000     0.304870000000     0.0475842  
H469     H      0.020970000000     0.302490000000     0.358580000000     0.0365162  
H470     H      0.928520000000     0.224430000000     0.218730000000     0.0419933  
H471     H      0.956410000000     0.206200000000     0.149930000000     0.0412592  
H472     H      0.942680000000     0.395430000000     0.328020000000     0.0338488  
N1       N      0.482930000000     0.139540000000     0.384540000000    -0.198736   
N2       N      0.477110000000     0.204130000000     0.326470000000    -0.100156   
N3       N      0.509900000000     0.325560000000     0.204200000000    -0.110143   
N4       N      0.507660000000     0.383990000000     0.140040000000    -0.188898   
N5       N      0.518420000000     0.886590000000     0.365590000000    -0.194944   
N6       N      0.518540000000     0.828660000000     0.300790000000    -0.0993901  
N7       N      0.478390000000     0.704120000000     0.183900000000    -0.111544   
N8       N      0.482190000000     0.639240000000     0.126050000000    -0.187253   
N9       N      0.516330000000     0.868750000000     0.623360000000    -0.194198   
N10      N      0.523400000000     0.804620000000     0.681500000000    -0.100379   
N11      N      0.495270000000     0.683140000000     0.804640000000    -0.112116   
N12      N      0.500230000000     0.625830000000     0.869510000000    -0.186611   
N13      N      0.507680000000     0.123720000000     0.640200000000    -0.191455   
N14      N      0.516450000000     0.179160000000     0.706030000000    -0.0983768  
N15      N      0.501180000000     0.305380000000     0.826600000000    -0.108296   
N16      N      0.507080000000     0.369390000000     0.884100000000    -0.181894   
N17      N      0.622370000000     0.140740000000     0.513650000000    -0.193576   
N18      N      0.679670000000     0.205700000000     0.515480000000    -0.0981747  
N19      N      0.801220000000     0.328300000000     0.485790000000    -0.111332   
N20      N      0.866400000000     0.385330000000     0.493350000000    -0.187571   
N21      N      0.884050000000     0.641590000000     0.514440000000    -0.193485   
N22      N      0.826720000000     0.706960000000     0.518530000000    -0.100112   
N23      N      0.704670000000     0.827780000000     0.483370000000    -0.110383   
N24      N      0.639830000000     0.885460000000     0.485980000000    -0.183986   
N25      N      0.367130000000     0.124400000000     0.512340000000    -0.193419   
N26      N      0.302080000000     0.181250000000     0.520270000000    -0.0999292  
N27      N      0.178820000000     0.303250000000     0.496020000000    -0.111599   
N28      N      0.121560000000     0.367950000000     0.502690000000    -0.192258   
N29      N      0.139450000000     0.623710000000     0.497170000000    -0.195249   
N30      N      0.204060000000     0.680360000000     0.503880000000    -0.0997433  
N31      N      0.326710000000     0.803990000000     0.489500000000    -0.110651   
N32      N      0.384200000000     0.867640000000     0.499410000000    -0.184455   
N33      N      0.627110000000     0.510660000000     0.136940000000    -0.193469   
N34      N      0.686890000000     0.515420000000     0.198930000000    -0.0991995  
N35      N      0.809190000000     0.489140000000     0.320890000000    -0.111895   
N36      N      0.871980000000     0.497840000000     0.379720000000    -0.190046   
N37      N      0.127350000000     0.496450000000     0.373580000000    -0.196174   
N38      N      0.187340000000     0.490500000000     0.311030000000    -0.0998751  
N39      N      0.308730000000     0.521480000000     0.188520000000    -0.11191    
N40      N      0.371560000000     0.515730000000     0.128950000000    -0.192557   
N41      N      0.379160000000     0.480550000000     0.874190000000    -0.194019   
N42      N      0.319950000000     0.471500000000     0.811380000000    -0.0993955  
N43      N      0.196380000000     0.492710000000     0.688960000000    -0.110292   
N44      N      0.133530000000     0.488420000000     0.629790000000    -0.185791   
N45      N      0.634220000000     0.503160000000     0.880130000000    -0.193272   
N46      N      0.697030000000     0.498750000000     0.820490000000    -0.100268   
N47      N      0.819040000000     0.528680000000     0.698360000000    -0.111535   
N48      N      0.878660000000     0.521330000000     0.635660000000    -0.18525    
N49      N      0.625080000000     0.639220000000     0.001870000000    -0.190109   
N50      N      0.683360000000     0.703150000000     0.005950000000    -0.109731   
N51      N      0.807290000000     0.824130000000     0.979830000000    -0.113183   
N52      N      0.870500000000     0.882890000000     0.989380000000    -0.183726   
N53      N      0.636440000000     0.384450000000     0.028650000000    -0.195933   
N54      N      0.700480000000     0.326160000000     0.034550000000    -0.0977376  
N55      N      0.820910000000     0.202870000000     0.002920000000    -0.112674   
N56      N      0.880030000000     0.139570000000     0.005920000000    -0.187211   
N57      N      0.126220000000     0.872610000000     0.009080000000    -0.195886   
N58      N      0.184670000000     0.809490000000     0.002020000000    -0.101297   
N59      N      0.306710000000     0.685960000000     0.022080000000    -0.109932   
N60      N      0.369380000000     0.627330000000     0.011110000000    -0.190902   
N61      N      0.379910000000     0.372380000000     0.005650000000    -0.200096   
N62      N      0.320330000000     0.310580000000     0.001030000000    -0.0969052  
N63      N      0.198080000000     0.186810000000     0.016090000000    -0.112812   
N64      N      0.135560000000     0.128180000000     0.005860000000    -0.185411   
N65      N      0.634820000000     0.013800000000     0.627610000000    -0.190639   
N66      N      0.697730000000     0.023620000000     0.685970000000    -0.0995744  
N67      N      0.819070000000     0.003990000000     0.810070000000    -0.109987   
N68      N      0.878230000000     0.009440000000     0.872290000000    -0.183633   
N69      N      0.134660000000     0.011730000000     0.878400000000    -0.192844   
N70      N      0.197360000000     0.014490000000     0.818090000000    -0.100572   
N71      N      0.318830000000     0.977660000000     0.696800000000    -0.113195   
N72      N      0.379010000000     0.981920000000     0.634020000000    -0.184926   
N73      N      0.372350000000     0.009960000000     0.377920000000    -0.195321   
N74      N      0.311280000000     0.002860000000     0.317730000000    -0.100114   
N75      N      0.186690000000     0.014650000000     0.195780000000    -0.114847   
N76      N      0.127340000000     0.002370000000     0.134230000000    -0.190579   
N77      N      0.627180000000     0.021040000000     0.372960000000    -0.19954    
N78      N      0.686610000000     0.030970000000     0.310750000000    -0.0992594  
N79      N      0.809660000000     0.009250000000     0.188340000000    -0.112134   
N80      N      0.872000000000     0.014790000000     0.128950000000    -0.188337   
N81      N      0.001320000000     0.375360000000     0.632390000000    -0.202323   
N82      N      0.999640000000     0.314330000000     0.693770000000    -0.0936025  
N83      N      0.035260000000     0.193810000000     0.815660000000    -0.110082   
N84      N      0.028070000000     0.132940000000     0.877030000000    -0.188974   
N85      N      0.993380000000     0.876700000000     0.876280000000    -0.194989   
N86      N      0.989980000000     0.814770000000     0.815790000000    -0.0953265  
N87      N      0.022590000000     0.693160000000     0.694100000000    -0.109432   
N88      N      0.016570000000     0.632140000000     0.632730000000    -0.184709   
N89      N      0.021640000000     0.631740000000     0.376160000000    -0.196775   
N90      N      0.028910000000     0.693000000000     0.314880000000    -0.0989474  
N91      N      0.997830000000     0.815720000000     0.193530000000    -0.105189   
N92      N      0.001070000000     0.877030000000     0.132300000000    -0.19409    
N93      N      0.000910000000     0.132960000000     0.132440000000    -0.196166   
N94      N      0.002910000000     0.193500000000     0.194470000000    -0.106873   
N95      N      0.973410000000     0.316910000000     0.315570000000    -0.11297    
N96      N      0.981670000000     0.378010000000     0.376910000000    -0.189627   
O1       O      0.002960000000     0.115800000000     0.062800000000    -0.614968   
O2       O      0.000040000000     0.894900000000     0.062930000000    -0.571175   
O3       O      0.941610000000     0.012140000000     0.113120000000    -0.608933   
O4       O      0.058470000000     0.001650000000     0.115260000000    -0.62344    
O5       O      0.111290000000     0.999850000000     0.064670000000    -0.624626   
O6       O      0.891290000000     0.012270000000     0.060080000000    -0.573547   
O7       O      0.002930000000     0.946490000000     0.114730000000    -0.610853   
O8       O      0.999260000000     0.063730000000     0.114170000000    -0.618427   
O9       O      0.041000000000     0.963740000000     0.045210000000    -1.453      
O10      O      0.963420000000     0.047780000000     0.043320000000    -1.45541    
O11      O      0.953320000000     0.960600000000     0.044280000000    -1.04872    
O12      O      0.045280000000     0.045860000000     0.046800000000    -1.62927    
O13      O      0.998160000000     0.894760000000     0.945150000000    -0.560327   
O14      O      0.016630000000     0.116260000000     0.945690000000    -0.606426   
O15      O      0.890380000000     0.951330000000     0.996840000000    -0.557885   
O16      O      0.111240000000     0.942570000000     0.010220000000    -0.609814   
O17      O      0.115320000000     0.059580000000     0.004320000000    -0.622995   
O18      O      0.895110000000     0.069550000000     0.004180000000    -0.572283   
O19      O      0.947030000000     0.008320000000     0.891430000000    -0.567485   
O20      O      0.065090000000     0.006560000000     0.894360000000    -0.573487   
O21      O      0.894110000000     0.009430000000     0.941970000000    -0.563801   
O22      O      0.115350000000     0.007530000000     0.947420000000    -0.592304   
O23      O      0.939890000000     0.897450000000     0.998550000000    -0.553463   
O24      O      0.948650000000     0.119310000000     0.006370000000    -0.611653   
O25      O      0.065750000000     0.113440000000     0.003580000000    -0.620224   
O26      O      0.057730000000     0.892820000000     0.007240000000    -0.571183   
O27      O      0.000040000000     0.946280000000     0.893100000000    -0.563865   
O28      O      0.014200000000     0.064760000000     0.893750000000    -0.575567   
O29      O      0.045790000000     0.044440000000     0.964800000000    -1.46737    
O30      O      0.962590000000     0.967410000000     0.962530000000    -1.36007    
O31      O      0.959440000000     0.049770000000     0.955770000000    -1.06063    
O32      O      0.044210000000     0.957270000000     0.957770000000    -1.05418    
O33      O      0.989950000000     0.394870000000     0.446020000000    -0.628323   
O34      O      0.013470000000     0.614650000000     0.445200000000    -0.573605   
O35      O      0.941600000000     0.501960000000     0.395070000000    -0.611854   
O36      O      0.058700000000     0.502030000000     0.392810000000    -0.616267   
O37      O      0.111460000000     0.499000000000     0.443350000000    -0.627456   
O38      O      0.891350000000     0.507330000000     0.447880000000    -0.576717   
O39      O      0.010830000000     0.562980000000     0.393480000000    -0.609546   
O40      O      0.992570000000     0.446670000000     0.394330000000    -0.615309   
O41      O      0.045180000000     0.541740000000     0.463140000000    -1.46859    
O42      O      0.959470000000     0.467270000000     0.465300000000    -1.48692    
O43      O      0.958480000000     0.554610000000     0.463350000000    -1.06263    
O44      O      0.040700000000     0.459560000000     0.461450000000    -1.64768    
O45      O      0.011500000000     0.614880000000     0.563450000000    -0.558351   
O46      O      0.000810000000     0.393110000000     0.563070000000    -0.619145   
O47      O      0.896660000000     0.571190000000     0.509240000000    -0.570651   
O48      O      0.117330000000     0.555470000000     0.497060000000    -0.603428   
O49      O      0.108610000000     0.438310000000     0.503880000000    -0.632242   
O50      O      0.888590000000     0.452930000000     0.502640000000    -0.570157   
O51      O      0.946930000000     0.511560000000     0.616600000000    -0.560521   
O52      O      0.064290000000     0.496440000000     0.613680000000    -0.567376   
O53      O      0.894120000000     0.514490000000     0.566080000000    -0.568364   
O54      O      0.114480000000     0.491210000000     0.560730000000    -0.605623   
O55      O      0.951790000000     0.619260000000     0.508130000000    -0.556897   
O56      O      0.936570000000     0.397830000000     0.498990000000    -0.610342   
O57      O      0.053550000000     0.390130000000     0.505070000000    -0.635296   
O58      O      0.069370000000     0.610620000000     0.500570000000    -0.569313   
O59      O      0.009660000000     0.563050000000     0.615180000000    -0.563352   
O60      O      0.003390000000     0.444750000000     0.614860000000    -0.576795   
O61      O      0.041380000000     0.460960000000     0.543750000000    -1.47709    
O62      O      0.966720000000     0.547200000000     0.545640000000    -1.3664     
O63      O      0.954310000000     0.465630000000     0.552300000000    -1.05381    
O64      O      0.048990000000     0.547860000000     0.550100000000    -1.05503    
O65      O      0.611540000000     0.014010000000     0.442340000000    -0.624993   
O66      O      0.391600000000     0.004250000000     0.446740000000    -0.565362   
O67      O      0.509320000000     0.953980000000     0.388230000000    -0.609165   
O68      O      0.492520000000     0.069750000000     0.397570000000    -0.624614   
O69      O      0.490830000000     0.118100000000     0.452520000000    -0.621007   
O70      O      0.513610000000     0.898830000000     0.436150000000    -0.564275   
O71      O      0.441760000000     0.012670000000     0.394230000000    -0.614425   
O72      O      0.558620000000     0.014060000000     0.391920000000    -0.627914   
O73      O      0.459630000000     0.044900000000     0.466820000000    -1.46972    
O74      O      0.545290000000     0.969790000000     0.459230000000    -1.46316    
O75      O      0.458800000000     0.957460000000     0.459390000000    -1.05986    
O76      O      0.541180000000     0.052140000000     0.463300000000    -1.63953    
O77      O      0.394620000000     0.990880000000     0.564620000000    -0.563101   
O78      O      0.615560000000     0.011590000000     0.559020000000    -0.6131     
O79      O      0.452140000000     0.889810000000     0.498330000000    -0.569375   
O80      O      0.437360000000     0.111510000000     0.508990000000    -0.602751   
O81      O      0.554370000000     0.118580000000     0.511570000000    -0.62469    
O82      O      0.569810000000     0.898400000000     0.492480000000    -0.566563   
O83      O      0.510120000000     0.938720000000     0.609900000000    -0.567282   
O84      O      0.502890000000     0.056140000000     0.617820000000    -0.57437    
O85      O      0.511470000000     0.890170000000     0.555050000000    -0.563448   
O86      O      0.504940000000     0.111370000000     0.569730000000    -0.599784   
O87      O      0.397210000000     0.937950000000     0.503430000000    -0.561486   
O88      O      0.617780000000     0.953590000000     0.491760000000    -0.601954   
O89      O      0.609260000000     0.070380000000     0.507670000000    -0.609497   
O90      O      0.389260000000     0.056360000000     0.507680000000    -0.571556   
O91      O      0.447530000000     0.990720000000     0.615090000000    -0.563754   
O92      O      0.565400000000     0.006470000000     0.612040000000    -0.562734   
O93      O      0.542130000000     0.044930000000     0.545240000000    -1.46944    
O94      O      0.467180000000     0.959030000000     0.541610000000    -1.37556    
O95      O      0.549420000000     0.957860000000     0.545810000000    -1.06115    
O96      O      0.455270000000     0.040160000000     0.553880000000    -1.06145    
O97      O      0.395160000000     0.442080000000     0.004900000000    -0.632798   
O98      O      0.615570000000     0.451560000000     0.015370000000    -0.569925   
O99      O      0.506220000000     0.390540000000     0.952570000000    -0.60215    
O100     O      0.507160000000     0.397910000000     0.069830000000    -0.622546   
O101     O      0.504620000000     0.452460000000     0.118660000000    -0.630909   
O102     O      0.505950000000     0.439570000000     0.898160000000    -0.564026   
O103     O      0.566420000000     0.397650000000     0.020450000000    -0.598422   
O104     O      0.448770000000     0.392260000000     0.006510000000    -0.615857   
O105     O      0.543310000000     0.468690000000     0.048870000000    -1.47056    
O106     O      0.465260000000     0.460400000000     0.966400000000    -1.4549     
O107     O      0.552460000000     0.462530000000     0.962260000000    -1.05418    
O108     O      0.461470000000     0.463470000000     0.048470000000    -1.63777    
O109     O      0.610470000000     0.569070000000     0.003970000000    -0.558136   
O110     O      0.389450000000     0.558790000000     0.005850000000    -0.614255   
O111     O      0.564540000000     0.502560000000     0.896060000000    -0.559232   
O112     O      0.558370000000     0.508730000000     0.117700000000    -0.61544    
O113     O      0.441240000000     0.512170000000     0.113510000000    -0.634552   
O114     O      0.447060000000     0.491990000000     0.893440000000    -0.570636   
O115     O      0.499920000000     0.612320000000     0.939870000000    -0.564537   
O116     O      0.492070000000     0.618390000000     0.058190000000    -0.564133   
O117     O      0.503900000000     0.557660000000     0.891240000000    -0.567316   
O118     O      0.491410000000     0.569430000000     0.112590000000    -0.610573   
O119     O      0.614790000000     0.507430000000     0.948980000000    -0.561248   
O120     O      0.394090000000     0.490560000000     0.943750000000    -0.600384   
O121     O      0.391070000000     0.507200000000     0.060550000000    -0.62149    
O122     O      0.611240000000     0.509710000000     0.067240000000    -0.564416   
O123     O      0.556670000000     0.618470000000     0.999510000000    -0.558807   
O124     O      0.438770000000     0.612720000000     0.003060000000    -0.572781   
O125     O      0.459870000000     0.545240000000     0.042100000000    -1.48189    
O126     O      0.542190000000     0.544920000000     0.963640000000    -1.36053    
O127     O      0.459940000000     0.547180000000     0.954840000000    -1.0614     
O128     O      0.546050000000     0.556120000000     0.045720000000    -1.05134    


