data_structure

_audit_creation_method RASPA-1.0
_audit_creation_date 2023-5-25
_audit_author_name 'Poobodin Mano'

_cell_length_a    32.5697
_cell_length_b    32.5084
_cell_length_c    32.5358
_cell_angle_alpha 90
_cell_angle_beta  90
_cell_angle_gamma 90
_cell_volume      34448.5

_symmetry_cell_setting          triclinic
_symmetry_space_group_name_Hall 'P 1'
_symmetry_space_group_name_H-M  'P 1'
_symmetry_Int_Tables_number     1

_symmetry_equiv_pos_as_xyz 'x,y,z'

loop_
_atom_site_label
_atom_site_type_symbol
_atom_site_fract_x
_atom_site_fract_y
_atom_site_fract_z
_atom_site_charge
C1       C      0.981950000000     0.094460000000     0.098510000000     0.50697    
C2       C      0.012510000000     0.899840000000     0.095970000000     0.526146   
C3       C      0.897200000000     0.993370000000     0.095410000000     0.505982   
C4       C      0.093600000000     0.000510000000     0.099890000000     0.516486   
C5       C      0.007720000000     0.902420000000     0.898490000000     0.512009   
C6       C      0.998160000000     0.099900000000     0.902200000000     0.507643   
C7       C      0.907900000000     0.892560000000     0.994120000000     0.510696   
C8       C      0.104470000000     0.908740000000     0.007830000000     0.511371   
C9       C      0.088300000000     0.104870000000     0.001240000000     0.524004   
C10      C      0.892200000000     0.089770000000     0.002870000000     0.524197   
C11      C      0.902850000000     0.992630000000     0.897780000000     0.518179   
C12      C      0.098710000000     0.017150000000     0.903910000000     0.510133   
C13      C      0.995870000000     0.399040000000     0.400600000000     0.522419   
C14      C      0.992510000000     0.595780000000     0.396560000000     0.521611   
C15      C      0.895000000000     0.486910000000     0.402470000000     0.529271   
C16      C      0.090330000000     0.508380000000     0.394580000000     0.526125   
C17      C      0.991580000000     0.598960000000     0.594320000000     0.496734   
C18      C      0.013640000000     0.402210000000     0.596530000000     0.525976   
C19      C      0.893060000000     0.591700000000     0.499740000000     0.525476   
C20      C      0.089510000000     0.603050000000     0.484550000000     0.528376   
C21      C      0.100500000000     0.406880000000     0.496060000000     0.517424   
C22      C      0.904430000000     0.394380000000     0.498930000000     0.524403   
C23      C      0.902920000000     0.500200000000     0.599610000000     0.520106   
C24      C      0.100300000000     0.498350000000     0.590670000000     0.531102   
C25      C      0.590850000000     0.992400000000     0.398570000000     0.523445   
C26      C      0.395660000000     0.014700000000     0.403990000000     0.527016   
C27      C      0.490890000000     0.901910000000     0.398820000000     0.525335   
C28      C      0.496350000000     0.098410000000     0.403240000000     0.529429   
C29      C      0.400340000000     0.998470000000     0.601120000000     0.514312   
C30      C      0.597720000000     0.994760000000     0.594980000000     0.509351   
C31      C      0.391660000000     0.905970000000     0.504840000000     0.49843    
C32      C      0.403880000000     0.103400000000     0.500780000000     0.531419   
C33      C      0.599790000000     0.090540000000     0.500590000000     0.513813   
C34      C      0.588320000000     0.894370000000     0.490560000000     0.505804   
C35      C      0.489120000000     0.898230000000     0.596570000000     0.497737   
C36      C      0.512400000000     0.094910000000     0.599480000000     0.528474   
C37      C      0.392100000000     0.407710000000     0.988280000000     0.50245    
C38      C      0.586740000000     0.390720000000     0.011200000000     0.50513    
C39      C      0.486010000000     0.397830000000     0.900060000000     0.505574   
C40      C      0.487590000000     0.400840000000     0.096850000000     0.501543   
C41      C      0.604120000000     0.587500000000     0.995840000000     0.494204   
C42      C      0.407030000000     0.603910000000     0.997320000000     0.521725   
C43      C      0.600030000000     0.488160000000     0.903240000000     0.501872   
C44      C      0.590360000000     0.482210000000     0.100490000000     0.506296   
C45      C      0.395750000000     0.508790000000     0.091190000000     0.499733   
C46      C      0.403220000000     0.499990000000     0.894840000000     0.509995   
C47      C      0.513690000000     0.593930000000     0.897980000000     0.513292   
C48      C      0.497670000000     0.597300000000     0.095140000000     0.505306   
C49      C      0.489620000000     0.202310000000     0.353920000000    -0.0403347  
C50      C      0.491170000000     0.298600000000     0.148940000000    -0.0363141  
C51      C      0.478190000000     0.384750000000     0.170330000000     0.00891302 
C52      C      0.475650000000     0.328340000000     0.115970000000     0.00845791 
C53      C      0.524080000000     0.268740000000     0.231650000000    -0.0540222  
C54      C      0.456370000000     0.234110000000     0.271730000000    -0.0556633  
C55      C      0.484110000000     0.281330000000     0.220930000000     0.0617581  
C56      C      0.493760000000     0.352250000000     0.200470000000    -0.0363269  
C57      C      0.496320000000     0.221350000000     0.282280000000     0.065737   
C58      C      0.486220000000     0.150090000000     0.301120000000    -0.118101   
C59      C      0.529980000000     0.238960000000     0.262060000000    -0.0505374  
C60      C      0.502140000000     0.116640000000     0.330030000000     0.339708   
C61      C      0.505420000000     0.171720000000     0.386000000000     0.0263799  
C62      C      0.450460000000     0.263860000000     0.241290000000    -0.0508294  
C63      C      0.494360000000     0.799360000000     0.347130000000    -0.0404507  
C64      C      0.492590000000     0.701470000000     0.143870000000    -0.0360309  
C65      C      0.500580000000     0.615490000000     0.168450000000     0.0101677  
C66      C      0.508100000000     0.670230000000     0.112420000000     0.00845678 
C67      C      0.532530000000     0.737310000000     0.235670000000    -0.0527521  
C68      C      0.453700000000     0.765530000000     0.254800000000    -0.050492   
C69      C      0.498500000000     0.720600000000     0.215360000000     0.0623169  
C70      C      0.485530000000     0.649760000000     0.196790000000    -0.0366036  
C71      C      0.487710000000     0.782050000000     0.275300000000     0.0644007  
C72      C      0.499780000000     0.852630000000     0.295500000000    -0.117253   
C73      C      0.527340000000     0.767830000000     0.265400000000    -0.0556353  
C74      C      0.484740000000     0.885900000000     0.325100000000     0.337796   
C75      C      0.479190000000     0.829610000000     0.379670000000     0.0246273  
C76      C      0.458910000000     0.735060000000     0.225000000000    -0.0548487  
C77      C      0.510950000000     0.695850000000     0.847440000000    -0.0401071  
C78      C      0.495560000000     0.794670000000     0.644510000000    -0.0351093  
C79      C      0.480390000000     0.879380000000     0.669670000000     0.00088346 
C80      C      0.477070000000     0.825080000000     0.613710000000     0.00740005 
C81      C      0.462500000000     0.754620000000     0.737710000000    -0.0516727  
C82      C      0.544300000000     0.734000000000     0.753730000000    -0.0500787  
C83      C      0.493940000000     0.774590000000     0.716150000000     0.0632952  
C84      C      0.498850000000     0.846630000000     0.697910000000    -0.0314404  
C85      C      0.512860000000     0.714150000000     0.775410000000     0.0639896  
C86      C      0.508150000000     0.642480000000     0.795280000000    -0.115902   
C87      C      0.471720000000     0.724640000000     0.767090000000    -0.0548849  
C88      C      0.526060000000     0.610390000000     0.824720000000     0.336133   
C89      C      0.528960000000     0.666120000000     0.879130000000     0.0248984  
C90      C      0.535070000000     0.763970000000     0.724320000000    -0.0550757  
C91      C      0.505790000000     0.143310000000     0.701730000000    -0.039702   
C92      C      0.494580000000     0.347050000000     0.798910000000    -0.0361774  
C93      C      0.469300000000     0.325710000000     0.882140000000     0.00967903 
C94      C      0.475940000000     0.380000000000     0.826780000000     0.00797822 
C95      C      0.458770000000     0.255810000000     0.757260000000    -0.0511083  
C96      C      0.540940000000     0.234140000000     0.744820000000    -0.0503548  
C97      C      0.489500000000     0.275260000000     0.780260000000     0.0621277  
C98      C      0.488220000000     0.294890000000     0.852060000000    -0.0367774  
C99      C      0.510230000000     0.214820000000     0.721690000000     0.0651555  
C100     C      0.510970000000     0.196610000000     0.649540000000    -0.117906   
C101     C      0.468900000000     0.225800000000     0.728210000000    -0.0552388  
C102     C      0.529750000000     0.166600000000     0.618550000000     0.340067   
C103     C      0.524400000000     0.111140000000     0.672900000000     0.0254875  
C104     C      0.530810000000     0.264100000000     0.773910000000    -0.0540346  
C105     C      0.858640000000     0.288850000000     0.490350000000    -0.040745   
C106     C      0.656300000000     0.190650000000     0.507680000000    -0.0362537  
C107     C      0.673680000000     0.104000000000     0.491930000000     0.00484412 
C108     C      0.621320000000     0.162700000000     0.493680000000     0.0123722  
C109     C      0.744630000000     0.224620000000     0.460510000000    -0.0524743  
C110     C      0.772460000000     0.247360000000     0.538570000000    -0.0477668  
C111     C      0.727760000000     0.205840000000     0.495380000000     0.0653522  
C112     C      0.705810000000     0.135340000000     0.505910000000    -0.0322211  
C113     C      0.788980000000     0.266490000000     0.503720000000     0.0640978  
C114     C      0.803880000000     0.338780000000     0.494900000000    -0.117029   
C115     C      0.774990000000     0.254730000000     0.464490000000    -0.0539604  
C116     C      0.832830000000     0.372780000000     0.509430000000     0.336559   
C117     C      0.890970000000     0.320030000000     0.504280000000     0.0249888  
C118     C      0.742100000000     0.217270000000     0.534590000000    -0.0549608  
C119     C      0.836650000000     0.692200000000     0.502240000000    -0.0406508  
C120     C      0.633640000000     0.788170000000     0.482640000000    -0.0362655  
C121     C      0.660460000000     0.873260000000     0.493500000000     0.0105547  
C122     C      0.601840000000     0.820250000000     0.495530000000     0.00894086 
C123     C      0.721370000000     0.751100000000     0.531440000000    -0.0511652  
C124     C      0.746710000000     0.721450000000     0.454850000000    -0.0507269  
C125     C      0.703650000000     0.766900000000     0.495550000000     0.0621401  
C126     C      0.688470000000     0.837990000000     0.480540000000    -0.0365445  
C127     C      0.764850000000     0.706070000000     0.490710000000     0.0661784  
C128     C      0.787350000000     0.636900000000     0.506630000000    -0.117162   
C129     C      0.751750000000     0.720890000000     0.529190000000    -0.0559938  
C130     C      0.818930000000     0.604500000000     0.493980000000     0.339204   
C131     C      0.871310000000     0.663280000000     0.489560000000     0.0264619  
C132     C      0.716320000000     0.751640000000     0.457100000000    -0.0541538  
C133     C      0.303810000000     0.159290000000     0.495080000000    -0.0416816  
C134     C      0.206110000000     0.362170000000     0.501920000000    -0.0371058  
C135     C      0.121810000000     0.334730000000     0.488600000000     0.00767945 
C136     C      0.174270000000     0.393280000000     0.487030000000     0.0144672  
C137     C      0.245890000000     0.272920000000     0.458330000000    -0.0522073  
C138     C      0.271840000000     0.250770000000     0.537230000000    -0.0482034  
C139     C      0.228160000000     0.291790000000     0.492680000000     0.0651645  
C140     C      0.156440000000     0.306880000000     0.503470000000    -0.0336231  
C141     C      0.289180000000     0.231490000000     0.502900000000     0.0646204  
C142     C      0.359020000000     0.208860000000     0.491150000000    -0.118066   
C143     C      0.276200000000     0.242970000000     0.463250000000    -0.0545351  
C144     C      0.390850000000     0.177760000000     0.506200000000     0.339204   
C145     C      0.332320000000     0.125340000000     0.510320000000     0.0266636  
C146     C      0.241540000000     0.280730000000     0.532310000000    -0.0555025  
C147     C      0.188870000000     0.658080000000     0.486900000000    -0.0358812  
C148     C      0.286640000000     0.861520000000     0.498080000000    -0.0357574  
C149     C      0.370030000000     0.833970000000     0.515520000000     0.00860588 
C150     C      0.317830000000     0.892010000000     0.515750000000     0.00816021 
C151     C      0.244360000000     0.769640000000     0.534100000000    -0.0526807  
C152     C      0.223850000000     0.751880000000     0.452550000000    -0.0494063  
C153     C      0.264280000000     0.790550000000     0.502180000000     0.0628257  
C154     C      0.336640000000     0.806230000000     0.497650000000    -0.0358252  
C155     C      0.204230000000     0.730680000000     0.484460000000     0.064827   
C156     C      0.133520000000     0.708000000000     0.490290000000    -0.115474   
C157     C      0.214580000000     0.739920000000     0.525460000000    -0.0554002  
C158     C      0.102510000000     0.677150000000     0.472850000000     0.336617   
C159     C      0.160480000000     0.625220000000     0.468990000000     0.0182159  
C160     C      0.253670000000     0.781560000000     0.461180000000    -0.0545397  
C161     C      0.790130000000     0.472520000000     0.356410000000    -0.0360641  
C162     C      0.690620000000     0.477330000000     0.154120000000    -0.0366121  
C163     C      0.603910000000     0.467070000000     0.173740000000     0.00998189 
C164     C      0.660880000000     0.463000000000     0.120760000000     0.00901702 
C165     C      0.719280000000     0.509910000000     0.237420000000    -0.0539457  
C166     C      0.755770000000     0.441460000000     0.274640000000    -0.0562818  
C167     C      0.706780000000     0.470020000000     0.226070000000     0.0617399  
C168     C      0.636210000000     0.480950000000     0.204970000000    -0.0370675  
C169     C      0.768370000000     0.481360000000     0.285810000000     0.0658218  
C170     C      0.840370000000     0.472380000000     0.301900000000    -0.116972   
C171     C      0.749800000000     0.515370000000     0.267080000000    -0.0499671  
C172     C      0.874310000000     0.488900000000     0.329860000000     0.338509   
C173     C      0.820960000000     0.488720000000     0.387940000000     0.0170233  
C174     C      0.725180000000     0.435980000000     0.245010000000    -0.0524349  
C175     C      0.136890000000     0.506200000000     0.289510000000    -0.0408861  
C176     C      0.340740000000     0.518750000000     0.192330000000    -0.036851   
C177     C      0.321630000000     0.506510000000     0.105510000000     0.00851994 
C178     C      0.374780000000     0.503770000000     0.163620000000     0.00944677 
C179     C      0.250550000000     0.474550000000     0.225800000000    -0.0523522  
C180     C      0.225390000000     0.553000000000     0.250410000000    -0.0506324  
C181     C      0.268800000000     0.509270000000     0.207990000000     0.061371   
C182     C      0.290700000000     0.521230000000     0.137710000000    -0.0363486  
C183     C      0.207280000000     0.518270000000     0.268360000000     0.0643935  
C184     C      0.191130000000     0.508830000000     0.340290000000    -0.117782   
C185     C      0.220100000000     0.478850000000     0.255780000000    -0.0561081  
C186     C      0.161730000000     0.523090000000     0.374040000000     0.339085   
C187     C      0.104430000000     0.519680000000     0.320830000000     0.0254842  
C188     C      0.255930000000     0.548690000000     0.220500000000    -0.0543558  
C189     C      0.155120000000     0.502460000000     0.691110000000    -0.0348468  
C190     C      0.356880000000     0.490400000000     0.790060000000    -0.0355709  
C191     C      0.331280000000     0.509480000000     0.873920000000     0.00596389 
C192     C      0.389040000000     0.505440000000     0.820760000000     0.00878893 
C193     C      0.269960000000     0.536340000000     0.748460000000    -0.0518325  
C194     C      0.243810000000     0.457390000000     0.726540000000    -0.0494285  
C195     C      0.286940000000     0.502020000000     0.768120000000     0.0637675  
C196     C      0.302330000000     0.494180000000     0.840340000000    -0.0336145  
C197     C      0.226550000000     0.491730000000     0.707160000000     0.0659743  
C198     C      0.205430000000     0.500990000000     0.636370000000    -0.117025   
C199     C      0.239970000000     0.531390000000     0.718210000000    -0.0551635  
C200     C      0.173710000000     0.486540000000     0.604820000000     0.339491   
C201     C      0.120870000000     0.487790000000     0.662700000000     0.0153525  
C202     C      0.273790000000     0.462340000000     0.756820000000    -0.0543443  
C203     C      0.856670000000     0.495040000000     0.704260000000    -0.0405524  
C204     C      0.653880000000     0.494570000000     0.802580000000    -0.0375468  
C205     C      0.673590000000     0.477660000000     0.888370000000     0.00979035 
C206     C      0.620390000000     0.478030000000     0.830960000000     0.0115451  
C207     C      0.745320000000     0.454320000000     0.766830000000    -0.0516025  
C208     C      0.766690000000     0.534770000000     0.745160000000    -0.0488442  
C209     C      0.725780000000     0.487480000000     0.786100000000     0.0636315  
C210     C      0.704510000000     0.494230000000     0.857120000000    -0.0363511  
C211     C      0.785860000000     0.501610000000     0.725520000000     0.0648531  
C212     C      0.802260000000     0.494040000000     0.653480000000    -0.117603   
C213     C      0.775180000000     0.461180000000     0.736800000000    -0.0547135  
C214     C      0.830660000000     0.510210000000     0.619760000000     0.33862    
C215     C      0.887900000000     0.511200000000     0.673110000000     0.0261663  
C216     C      0.736900000000     0.527910000000     0.775280000000    -0.0546592  
C217     C      0.864610000000     0.785600000000     0.985850000000    -0.0476032  
C218     C      0.661920000000     0.686860000000     0.996350000000    -0.0392271  
C219     C      0.678540000000     0.599160000000     0.987250000000    -0.00130609 
C220     C      0.627380000000     0.658320000000     0.982290000000     0.00804183 
C221     C      0.752930000000     0.717960000000     0.953100000000    -0.0530435  
C222     C      0.776410000000     0.744390000000     0.031420000000    -0.0457439  
C223     C      0.734230000000     0.700610000000     0.987800000000     0.0592822  
C224     C      0.710630000000     0.630870000000     0.000800000000    -0.0247767  
C225     C      0.794690000000     0.762150000000     0.996720000000     0.0577501  
C226     C      0.808750000000     0.834410000000     0.985910000000    -0.124001   
C227     C      0.782910000000     0.748480000000     0.957370000000    -0.0537922  
C228     C      0.836240000000     0.869570000000     0.000680000000     0.345303   
C229     C      0.895660000000     0.817980000000     0.000190000000     0.0329078  
C230     C      0.746420000000     0.713900000000     0.027160000000    -0.0523434  
C231     C      0.833860000000     0.188230000000     0.016170000000    -0.0329657  
C232     C      0.629890000000     0.284950000000     0.010090000000    -0.0326698  
C233     C      0.656720000000     0.368170000000     0.029830000000     0.00763411 
C234     C      0.598430000000     0.316730000000     0.024870000000     0.00848154 
C235     C      0.718050000000     0.241610000000     0.053520000000    -0.0526096  
C236     C      0.743050000000     0.221990000000     0.973670000000    -0.0547596  
C237     C      0.699960000000     0.261800000000     0.020060000000     0.0650806  
C238     C      0.685540000000     0.334430000000     0.014510000000    -0.0320187  
C239     C      0.761620000000     0.202300000000     0.007150000000     0.070541   
C240     C      0.785550000000     0.131900000000     0.013920000000    -0.108477   
C241     C      0.748620000000     0.212060000000     0.047270000000    -0.0573207  
C242     C      0.817750000000     0.101910000000     0.997190000000     0.3264     
C243     C      0.868890000000     0.161680000000     0.999680000000     0.0149593  
C244     C      0.712480000000     0.251490000000     0.979920000000    -0.0573307  
C245     C      0.364030000000     0.710290000000     0.009260000000    -0.0290545  
C246     C      0.161290000000     0.809610000000     0.006100000000    -0.0320112  
C247     C      0.178040000000     0.896240000000     0.022020000000     0.00999073 
C248     C      0.126750000000     0.837430000000     0.021530000000     0.00895406 
C249     C      0.252360000000     0.775340000000     0.047500000000    -0.0524561  
C250     C      0.275650000000     0.754440000000     0.967460000000    -0.0527434  
C251     C      0.233510000000     0.794990000000     0.014130000000     0.0671125  
C252     C      0.210420000000     0.865650000000     0.006740000000    -0.0321348  
C253     C      0.293990000000     0.734290000000     0.000800000000     0.0704721  
C254     C      0.308080000000     0.661520000000     0.007080000000    -0.106214   
C255     C      0.282370000000     0.745240000000     0.041040000000    -0.0559719  
C256     C      0.335470000000     0.627290000000     0.990160000000     0.329047   
C257     C      0.394810000000     0.678690000000     0.992770000000     0.0142893  
C258     C      0.245690000000     0.784550000000     0.973910000000    -0.0573554  
C259     C      0.131530000000     0.210940000000     0.990330000000    -0.0476115  
C260     C      0.334720000000     0.308960000000     0.991140000000    -0.0413926  
C261     C      0.318270000000     0.395670000000     0.975340000000     0.00926748 
C262     C      0.369220000000     0.336510000000     0.975190000000     0.0101658  
C263     C      0.243130000000     0.275090000000     0.951050000000    -0.0530143  
C264     C      0.220410000000     0.254910000000     0.031440000000    -0.0465178  
C265     C      0.262350000000     0.294860000000     0.984120000000     0.0585277  
C266     C      0.285960000000     0.365320000000     0.991130000000    -0.0409423  
C267     C      0.201660000000     0.234680000000     0.998390000000     0.0574004  
C268     C      0.187360000000     0.161930000000     0.993110000000    -0.12772    
C269     C      0.213020000000     0.245230000000     0.957970000000    -0.0542804  
C270     C      0.159750000000     0.128050000000     0.010320000000     0.344475   
C271     C      0.100680000000     0.179570000000     0.007060000000     0.0328688  
C272     C      0.250510000000     0.284760000000     0.024520000000    -0.0521373  
C273     C      0.801220000000     0.983250000000     0.844470000000    -0.0373027  
C274     C      0.702120000000     0.001020000000     0.642730000000    -0.0323226  
C275     C      0.617380000000     0.985120000000     0.667290000000     0.00854352 
C276     C      0.671330000000     0.987180000000     0.610110000000     0.0075614  
C277     C      0.734940000000     0.027700000000     0.726730000000    -0.0530927  
C278     C      0.772020000000     0.957290000000     0.759440000000    -0.0552764  
C279     C      0.722790000000     0.988500000000     0.712920000000     0.0615194  
C280     C      0.651150000000     0.999060000000     0.696690000000    -0.0378685  
C281     C      0.783810000000     0.996470000000     0.773600000000     0.0632602  
C282     C      0.854790000000     0.986460000000     0.793230000000    -0.119902   
C283     C      0.765200000000     0.031500000000     0.756880000000    -0.0472356  
C284     C      0.886870000000     0.000820000000     0.824390000000     0.341515   
C285     C      0.830010000000     0.997170000000     0.878780000000     0.0164604  
C286     C      0.741680000000     0.953480000000     0.729350000000    -0.052711   
C287     C      0.299210000000     0.008260000000     0.653430000000    -0.035494   
C288     C      0.201660000000     0.017830000000     0.856750000000    -0.0353231  
C289     C      0.117120000000     0.033400000000     0.831920000000     0.0084669  
C290     C      0.170910000000     0.034870000000     0.887960000000     0.0101822  
C291     C      0.231900000000     0.980390000000     0.775810000000    -0.0561227  
C292     C      0.272020000000     0.044790000000     0.735290000000    -0.0564451  
C293     C      0.221830000000     0.021440000000     0.785340000000     0.0637754  
C294     C      0.149870000000     0.016390000000     0.802900000000    -0.034602   
C295     C      0.281720000000     0.003730000000     0.725430000000     0.0670855  
C296     C      0.353060000000     0.007630000000     0.704840000000    -0.111852   
C297     C      0.261580000000     0.971760000000     0.746050000000    -0.0520456  
C298     C      0.384190000000     0.989360000000     0.674700000000     0.333512   
C299     C      0.327620000000     0.990170000000     0.620710000000     0.0210453  
C300     C      0.242250000000     0.053420000000     0.764990000000    -0.0525951  
C301     C      0.292480000000     0.013830000000     0.356300000000    -0.0385311  
C302     C      0.194880000000     0.011370000000     0.152500000000    -0.0336434  
C303     C      0.109940000000     0.992140000000     0.173460000000    -0.00203831 
C304     C      0.166500000000     0.993950000000     0.119360000000     0.00845558 
C305     C      0.232740000000     0.972210000000     0.243850000000    -0.0527187  
C306     C      0.251880000000     0.053160000000     0.265750000000    -0.0485921  
C307     C      0.212510000000     0.004850000000     0.224390000000     0.0678961  
C308     C      0.141140000000     0.009750000000     0.203880000000    -0.0267433  
C309     C      0.272290000000     0.020520000000     0.285050000000     0.066004   
C310     C      0.344280000000     0.015470000000     0.302610000000    -0.116105   
C311     C      0.262390000000     0.979830000000     0.273950000000    -0.0548139  
C312     C      0.376900000000     0.031700000000     0.332310000000     0.33935    
C313     C      0.322860000000     0.029950000000     0.388360000000     0.0256394  
C314     C      0.222190000000     0.045540000000     0.235660000000    -0.0555723  
C315     C      0.639370000000     0.985070000000     0.293970000000    -0.0372695  
C316     C      0.843280000000     0.999550000000     0.197030000000    -0.036893   
C317     C      0.823860000000     0.983330000000     0.110980000000     0.002136   
C318     C      0.877680000000     0.985710000000     0.168150000000     0.00800528 
C319     C      0.753850000000     0.952340000000     0.231410000000    -0.0516868  
C320     C      0.728050000000     0.030530000000     0.256200000000    -0.047547   
C321     C      0.771940000000     0.987260000000     0.213820000000     0.0619332  
C322     C      0.792460000000     0.997470000000     0.142970000000    -0.0335189  
C323     C      0.710290000000     0.995610000000     0.274120000000     0.0628181  
C324     C      0.692730000000     0.983690000000     0.345450000000    -0.117306   
C325     C      0.723220000000     0.956330000000     0.261260000000    -0.0544344  
C326     C      0.663660000000     0.998090000000     0.379430000000     0.335723   
C327     C      0.606910000000     0.999290000000     0.324930000000     0.0164259  
C328     C      0.758550000000     0.026540000000     0.226220000000    -0.0530795  
C329     C      0.013700000000     0.300170000000     0.647800000000    -0.0405153  
C330     C      0.008660000000     0.203600000000     0.852940000000    -0.035924   
C331     C      0.994020000000     0.118380000000     0.828900000000     0.00351075 
C332     C      0.991470000000     0.173490000000     0.884800000000     0.00932459 
C333     C      0.044040000000     0.234700000000     0.771380000000    -0.0550094  
C334     C      0.977990000000     0.270820000000     0.729840000000    -0.054694   
C335     C      0.003600000000     0.222860000000     0.781130000000     0.062817   
C336     C      0.011300000000     0.151310000000     0.800180000000    -0.0325811  
C337     C      0.018430000000     0.282590000000     0.720000000000     0.064111   
C338     C      0.010520000000     0.353810000000     0.699530000000    -0.116557   
C339     C      0.051240000000     0.264340000000     0.741060000000    -0.0502197  
C340     C      0.027140000000     0.386120000000     0.669660000000     0.337906   
C341     C      0.029900000000     0.330220000000     0.615340000000     0.0264643  
C342     C      0.970790000000     0.241180000000     0.760150000000    -0.0512085  
C343     C      0.998900000000     0.853730000000     0.795210000000    -0.038335   
C344     C      0.999030000000     0.650520000000     0.696170000000    -0.0346968  
C345     C      0.978270000000     0.671750000000     0.611610000000     0.00677149 
C346     C      0.982460000000     0.617210000000     0.667430000000     0.0069447  
C347     C      0.031570000000     0.734220000000     0.723690000000    -0.0555201  
C348     C      0.965960000000     0.770600000000     0.765670000000    -0.0549963  
C349     C      0.991040000000     0.722060000000     0.714710000000     0.062972   
C350     C      0.995030000000     0.702560000000     0.642950000000    -0.0345536  
C351     C      0.006510000000     0.782590000000     0.774790000000     0.0633529  
C352     C      0.002450000000     0.800280000000     0.846970000000    -0.116146   
C353     C      0.039090000000     0.764230000000     0.753510000000    -0.0500799  
C354     C      0.019650000000     0.829940000000     0.879190000000     0.335422   
C355     C      0.015850000000     0.886130000000     0.824780000000     0.0219974  
C356     C      0.958440000000     0.740550000000     0.735860000000    -0.0533808  
C357     C      0.013070000000     0.796770000000     0.143440000000    -0.0407361  
C358     C      0.002450000000     0.697920000000     0.345810000000    -0.0381705  
C359     C      0.987270000000     0.612520000000     0.322860000000     0.0104657  
C360     C      0.984030000000     0.668660000000     0.377540000000     0.0143184  
C361     C      0.040300000000     0.727020000000     0.265050000000    -0.0559908  
C362     C      0.975690000000     0.765790000000     0.223680000000    -0.0535412  
C363     C      0.999430000000     0.716090000000     0.273970000000     0.0663259  
C364     C      0.005500000000     0.644640000000     0.293860000000    -0.0354758  
C365     C      0.016550000000     0.776850000000     0.214840000000     0.0636951  
C366     C      0.010480000000     0.848770000000     0.197100000000    -0.118021   
C367     C      0.048650000000     0.757200000000     0.235670000000    -0.0473427  
C368     C      0.027460000000     0.881740000000     0.168270000000     0.339485   
C369     C      0.029960000000     0.827630000000     0.112320000000     0.0262893  
C370     C      0.967350000000     0.735630000000     0.253040000000    -0.0527129  
C371     C      0.982790000000     0.346670000000     0.299230000000    -0.0403347  
C372     C      0.984300000000     0.142940000000     0.201480000000    -0.0369025  
C373     C      0.964170000000     0.165960000000     0.117280000000     0.00950915 
C374     C      0.968440000000     0.110260000000     0.171630000000     0.00921432 
C375     C      0.943280000000     0.232430000000     0.242480000000    -0.0533203  
C376     C      0.023780000000     0.256630000000     0.260070000000    -0.0506494  
C377     C      0.976000000000     0.214090000000     0.221410000000     0.0624325  
C378     C      0.980250000000     0.196290000000     0.149370000000    -0.03707    
C379     C      0.991060000000     0.275090000000     0.281010000000     0.0640033  
C380     C      0.986970000000     0.295030000000     0.352610000000    -0.116181   
C381     C      0.950600000000     0.262690000000     0.272090000000    -0.0557597  
C382     C      0.004480000000     0.325630000000     0.383730000000     0.335158   
C383     C      0.999960000000     0.380150000000     0.327370000000     0.0246906  
C384     C      0.016470000000     0.226360000000     0.230500000000    -0.0554439  
Eu1      Eu     0.995760000000     0.996990000000     0.071760000000     3.52293    
Eu2      Eu     0.004280000000     0.925920000000     0.997670000000     3.02936    
Eu3      Eu     0.991920000000     0.071670000000     0.999690000000     3.47809    
Eu4      Eu     0.925370000000     0.993120000000     0.997160000000     3.03975    
Eu5      Eu     0.070870000000     0.004370000000     0.000550000000     3.56276    
Eu6      Eu     0.000410000000     0.000480000000     0.925810000000     3.06184    
Eu7      Eu     0.993330000000     0.498240000000     0.424270000000     3.52015    
Eu8      Eu     0.992940000000     0.572190000000     0.495900000000     3.06817    
Eu9      Eu     0.000640000000     0.426280000000     0.498690000000     3.4998     
Eu10     Eu     0.924110000000     0.494680000000     0.500090000000     3.08374    
Eu11     Eu     0.069570000000     0.503930000000     0.494350000000     3.53212    
Eu12     Eu     0.000340000000     0.500250000000     0.570250000000     3.06445    
Eu13     Eu     0.493120000000     0.999320000000     0.426950000000     3.50877    
Eu14     Eu     0.422900000000     0.003070000000     0.501850000000     3.06272    
Eu15     Eu     0.568360000000     0.993490000000     0.497990000000     3.51276    
Eu16     Eu     0.491400000000     0.925310000000     0.498200000000     3.04579    
Eu17     Eu     0.499850000000     0.071260000000     0.501640000000     3.54273    
Eu18     Eu     0.498180000000     0.997140000000     0.572960000000     3.06972    
Eu19     Eu     0.492110000000     0.424640000000     0.997650000000     3.47494    
Eu20     Eu     0.570480000000     0.491120000000     0.000730000000     3.08014    
Eu21     Eu     0.425300000000     0.504090000000     0.993710000000     3.49794    
Eu22     Eu     0.500750000000     0.496110000000     0.924310000000     3.07847    
Eu23     Eu     0.495040000000     0.498990000000     0.070210000000     3.50232    
Eu24     Eu     0.503700000000     0.570520000000     0.996800000000     3.02545    
F1       F      0.543140000000     0.109200000000     0.321500000000    -0.44592    
F2       F      0.444040000000     0.894800000000     0.316560000000    -0.443433   
F3       F      0.567650000000     0.606060000000     0.816990000000    -0.445181   
F4       F      0.572000000000     0.171410000000     0.618370000000    -0.443983   
F5       F      0.827920000000     0.378330000000     0.551350000000    -0.441789   
F6       F      0.811950000000     0.593260000000     0.453520000000    -0.437927   
F7       F      0.399890000000     0.185720000000     0.547040000000    -0.44498    
F8       F      0.097020000000     0.684840000000     0.431340000000    -0.440033   
F9       F      0.880860000000     0.530060000000     0.321010000000    -0.439269   
F10      F      0.165940000000     0.565140000000     0.379250000000    -0.441978   
F11      F      0.178690000000     0.444770000000     0.598070000000    -0.438246   
F12      F      0.823580000000     0.551850000000     0.614240000000    -0.443999   
F13      F      0.828890000000     0.876600000000     0.042020000000    -0.444565   
F14      F      0.810970000000     0.095950000000     0.955580000000    -0.43876    
F15      F      0.328230000000     0.622960000000     0.948430000000    -0.444392   
F16      F      0.166460000000     0.124470000000     0.052200000000    -0.45304    
F17      F      0.893780000000     0.042530000000     0.819090000000    -0.439425   
F18      F      0.387850000000     0.947560000000     0.682020000000    -0.447493   
F19      F      0.380520000000     0.073870000000     0.327440000000    -0.445699   
F20      F      0.671150000000     0.039210000000     0.387710000000    -0.447727   
F21      F      0.068760000000     0.391100000000     0.676610000000    -0.443221   
F22      F      0.061660000000     0.824190000000     0.882360000000    -0.443105   
F23      F      0.069240000000     0.885820000000     0.175000000000    -0.44864    
F24      F      0.046390000000     0.319410000000     0.387320000000    -0.453257   
H1       H      0.962010000000     0.956260000000     0.065390000000    -0.179843   
H2       H      0.050940000000     0.062140000000     0.061800000000     0.419253   
H3       H      0.956100000000     0.064460000000     0.961130000000    -0.173933   
H4       H      0.070440000000     0.967250000000     0.962130000000    -0.183926   
H5       H      0.954140000000     0.533590000000     0.430180000000    -0.17513    
H6       H      0.057420000000     0.442300000000     0.435400000000     0.419062   
H7       H      0.964960000000     0.429640000000     0.537950000000    -0.179854   
H8       H      0.064500000000     0.541710000000     0.531730000000    -0.182345   
H9       H      0.453230000000     0.964470000000     0.432120000000    -0.178594   
H10      H      0.557070000000     0.055550000000     0.439370000000     0.431684   
H11      H      0.562220000000     0.955730000000     0.534760000000    -0.186559   
H12      H      0.463640000000     0.067970000000     0.540420000000    -0.184506   
H13      H      0.531650000000     0.425360000000     0.961810000000    -0.167862   
H14      H      0.430520000000     0.443480000000     0.054520000000     0.411674   
H15      H      0.435020000000     0.540510000000     0.956290000000    -0.179107   
H16      H      0.536030000000     0.532780000000     0.066710000000    -0.181342   
H17      H      0.419570000000     0.273310000000     0.233410000000     0.0469504  
H18      H      0.501670000000     0.233380000000     0.361770000000     0.0407866  
H19      H      0.495340000000     0.142030000000     0.269130000000     0.0886718  
H20      H      0.444960000000     0.390070000000     0.176100000000     0.0275755  
H21      H      0.539020000000     0.176350000000     0.389960000000     0.0447604  
H22      H      0.479240000000     0.267320000000     0.141750000000     0.0381831  
H23      H      0.483860000000     0.361180000000     0.231990000000     0.0362398  
H24      H      0.490380000000     0.319970000000     0.086290000000     0.0364663  
H25      H      0.484740000000     0.087990000000     0.323240000000     0.00799898 
H26      H      0.429840000000     0.220950000000     0.286850000000     0.047888   
H27      H      0.490530000000     0.178960000000     0.415900000000     0.0381456  
H28      H      0.550600000000     0.281830000000     0.216470000000     0.0428038  
H29      H      0.455470000000     0.203530000000     0.355370000000     0.0439029  
H30      H      0.494550000000     0.414040000000     0.176940000000     0.0362937  
H31      H      0.525340000000     0.297440000000     0.147800000000     0.0396157  
H32      H      0.527950000000     0.351730000000     0.199830000000     0.0389456  
H33      H      0.560870000000     0.229390000000     0.269830000000     0.0564165  
H34      H      0.452040000000     0.150770000000     0.302450000000     0.0751185  
H35      H      0.441980000000     0.323990000000     0.112270000000     0.0280394  
H36      H      0.432130000000     0.722700000000     0.209660000000     0.0427926  
H37      H      0.481350000000     0.768480000000     0.354190000000     0.0389925  
H38      H      0.491080000000     0.861660000000     0.263660000000     0.0834879  
H39      H      0.532940000000     0.608030000000     0.176440000000     0.032618   
H40      H      0.445400000000     0.826050000000     0.383060000000     0.0475866  
H41      H      0.506010000000     0.732040000000     0.136240000000     0.037585   
H42      H      0.493640000000     0.641440000000     0.228980000000     0.0365637  
H43      H      0.494280000000     0.677900000000     0.082100000000     0.0368541  
H44      H      0.503060000000     0.914160000000     0.319180000000    -0.00872317 
H45      H      0.423080000000     0.776250000000     0.262100000000     0.0558415  
H46      H      0.493410000000     0.821030000000     0.409550000000     0.0326231  
H47      H      0.563140000000     0.726470000000     0.228480000000     0.0461934  
H48      H      0.528450000000     0.797140000000     0.348870000000     0.0372278  
H49      H      0.481870000000     0.587550000000     0.174660000000     0.0363334  
H50      H      0.458560000000     0.703970000000     0.141510000000     0.0387244  
H51      H      0.451470000000     0.651990000000     0.194670000000     0.0386382  
H52      H      0.554110000000     0.780170000000     0.280760000000     0.0415246  
H53      H      0.533910000000     0.850830000000     0.296970000000     0.0537915  
H54      H      0.541940000000     0.673600000000     0.109340000000     0.0347009  
H55      H      0.559960000000     0.778920000000     0.708120000000     0.0431439  
H56      H      0.522340000000     0.727360000000     0.854480000000     0.0397048  
H57      H      0.517290000000     0.634250000000     0.763340000000     0.0817285  
H58      H      0.447110000000     0.882310000000     0.676690000000     0.0695377  
H59      H      0.562800000000     0.670550000000     0.880230000000     0.0496069  
H60      H      0.484280000000     0.763270000000     0.636810000000     0.0378482  
H61      H      0.490120000000     0.854050000000     0.730150000000     0.0418097  
H62      H      0.489690000000     0.817910000000     0.582780000000     0.0374167  
H63      H      0.511000000000     0.580470000000     0.817920000000    -0.0101824  
H64      H      0.576070000000     0.726250000000     0.759790000000     0.0549031  
H65      H      0.516510000000     0.674430000000     0.909820000000     0.0344666  
H66      H      0.430740000000     0.762480000000     0.731770000000     0.0503029  
H67      H      0.476870000000     0.695950000000     0.850340000000     0.041856   
H68      H      0.495120000000     0.909340000000     0.677000000000     0.0502486  
H69      H      0.529620000000     0.794800000000     0.641340000000     0.0394487  
H70      H      0.532960000000     0.847760000000     0.695590000000     0.0386721  
H71      H      0.446830000000     0.709780000000     0.783360000000     0.0448638  
H72      H      0.474010000000     0.641450000000     0.797100000000     0.056328   
H73      H      0.443310000000     0.820170000000     0.612430000000     0.0388107  
H74      H      0.555150000000     0.278620000000     0.791300000000     0.043381   
H75      H      0.513980000000     0.134990000000     0.733890000000     0.0400032  
H76      H      0.522850000000     0.228030000000     0.642930000000     0.0866682  
H77      H      0.435350000000     0.322150000000     0.881490000000     0.0330507  
H78      H      0.557670000000     0.108110000000     0.679970000000     0.0519923  
H79      H      0.486930000000     0.354790000000     0.766470000000     0.0392174  
H80      H      0.475820000000     0.263790000000     0.859180000000     0.0364401  
H81      H      0.491130000000     0.409800000000     0.819800000000     0.0387591  
H82      H      0.518150000000     0.175070000000     0.587560000000     0.000661233
H83      H      0.572840000000     0.225980000000     0.740150000000     0.0560658  
H84      H      0.509680000000     0.081020000000     0.679500000000     0.0360074  
H85      H      0.426880000000     0.264060000000     0.761830000000     0.0474479  
H86      H      0.471720000000     0.142520000000     0.698840000000     0.0421087  
H87      H      0.479910000000     0.317820000000     0.913630000000     0.0356555  
H88      H      0.528610000000     0.347550000000     0.802270000000     0.0405179  
H89      H      0.522100000000     0.294160000000     0.856630000000     0.0390828  
H90      H      0.444550000000     0.211320000000     0.710800000000     0.0471556  
H91      H      0.477020000000     0.197060000000     0.645400000000     0.0691734  
H92      H      0.442820000000     0.383290000000     0.819130000000     0.0343149  
H93      H      0.729460000000     0.203330000000     0.562020000000     0.0491879  
H94      H      0.868880000000     0.257620000000     0.499930000000     0.0402677  
H95      H      0.772710000000     0.344990000000     0.507530000000     0.084798   
H96      H      0.677890000000     0.098060000000     0.458530000000     0.0630543  
H97      H      0.898890000000     0.313780000000     0.536940000000     0.0466804  
H98      H      0.649510000000     0.222510000000     0.497110000000     0.0441829  
H99      H      0.736290000000     0.125550000000     0.493900000000     0.0420883  
H100     H      0.593270000000     0.171340000000     0.511180000000     0.055566   
H101     H      0.823420000000     0.401780000000     0.493910000000    -0.00845912 
H102     H      0.782860000000     0.256220000000     0.568920000000     0.057591   
H103     H      0.919260000000     0.315000000000     0.485790000000     0.035142   
H104     H      0.733790000000     0.216210000000     0.430190000000     0.0510802  
H105     H      0.856520000000     0.289290000000     0.456180000000     0.0372178  
H106     H      0.679560000000     0.074560000000     0.508320000000     0.0473929  
H107     H      0.657600000000     0.190900000000     0.541910000000     0.0576404  
H108     H      0.707390000000     0.135400000000     0.540110000000     0.0438725  
H109     H      0.787140000000     0.269150000000     0.437090000000     0.0416652  
H110     H      0.801730000000     0.339600000000     0.460720000000     0.0536581  
H111     H      0.614990000000     0.168690000000     0.460630000000     0.0377968  
H112     H      0.703150000000     0.763470000000     0.428940000000     0.0426259  
H113     H      0.842970000000     0.723100000000     0.488880000000     0.039963   
H114     H      0.756360000000     0.626260000000     0.496840000000     0.0884238  
H115     H      0.667040000000     0.881170000000     0.526110000000     0.0338392  
H116     H      0.877010000000     0.666950000000     0.456050000000     0.0496138  
H117     H      0.623920000000     0.757730000000     0.494950000000     0.0378397  
H118     H      0.720210000000     0.845110000000     0.491120000000     0.037066   
H119     H      0.573130000000     0.814600000000     0.477890000000     0.0354799  
H120     H      0.813920000000     0.576830000000     0.513480000000     0.00931258 
H121     H      0.756590000000     0.710320000000     0.425070000000     0.0572196  
H122     H      0.899730000000     0.673050000000     0.505830000000     0.0350066  
H123     H      0.711950000000     0.762690000000     0.561190000000     0.046989   
H124     H      0.836360000000     0.695280000000     0.536350000000     0.0419767  
H125     H      0.668380000000     0.900700000000     0.474660000000     0.0384233  
H126     H      0.634380000000     0.785990000000     0.448480000000     0.0380608  
H127     H      0.688950000000     0.835800000000     0.446360000000     0.0383009  
H128     H      0.765350000000     0.709520000000     0.557330000000     0.046396   
H129     H      0.787180000000     0.639830000000     0.540750000000     0.0696295  
H130     H      0.594440000000     0.815690000000     0.528600000000     0.0348305  
H131     H      0.228200000000     0.294810000000     0.559330000000     0.0504906  
H132     H      0.272500000000     0.153280000000     0.507450000000     0.0400203  
H133     H      0.369120000000     0.240250000000     0.500400000000     0.0839976  
H134     H      0.116280000000     0.328680000000     0.455410000000     0.0550353  
H135     H      0.327880000000     0.121470000000     0.543990000000     0.0461115  
H136     H      0.236780000000     0.371800000000     0.490270000000     0.0434022  
H137     H      0.149820000000     0.274930000000     0.493070000000     0.0423118  
H138     H      0.180130000000     0.423010000000     0.502920000000     0.0598436  
H139     H      0.419400000000     0.182540000000     0.488050000000    -0.00906791 
H140     H      0.281510000000     0.242110000000     0.567880000000     0.0564505  
H141     H      0.322930000000     0.096060000000     0.495330000000     0.0340837  
H142     H      0.235760000000     0.281110000000     0.427700000000     0.0497749  
H143     H      0.302140000000     0.158170000000     0.460890000000     0.0418503  
H144     H      0.093380000000     0.326100000000     0.505460000000     0.0488224  
H145     H      0.207110000000     0.362550000000     0.536150000000     0.0624888  
H146     H      0.157130000000     0.306980000000     0.537710000000     0.0476838  
H147     H      0.289060000000     0.228400000000     0.436250000000     0.0445024  
H148     H      0.357600000000     0.207890000000     0.456950000000     0.057181   
H149     H      0.178760000000     0.398520000000     0.453550000000     0.0315197  
H150     H      0.268750000000     0.797110000000     0.435930000000     0.0455112  
H151     H      0.220510000000     0.652370000000     0.475280000000     0.0445312  
H152     H      0.123880000000     0.739570000000     0.481210000000     0.0813072  
H153     H      0.372330000000     0.828130000000     0.549120000000     0.0372682  
H154     H      0.164590000000     0.624710000000     0.435090000000     0.0915055  
H155     H      0.255450000000     0.870740000000     0.508620000000     0.0378857  
H156     H      0.342800000000     0.774080000000     0.507720000000     0.0377824  
H157     H      0.312050000000     0.922620000000     0.501670000000     0.0379508  
H158     H      0.072670000000     0.682530000000     0.488520000000    -0.0121531  
H159     H      0.216300000000     0.744990000000     0.420870000000     0.0587644  
H160     H      0.170250000000     0.594790000000     0.481100000000     0.0492568  
H161     H      0.252340000000     0.776100000000     0.565760000000     0.0474078  
H162     H      0.189310000000     0.655200000000     0.521010000000     0.0372596  
H163     H      0.399820000000     0.825000000000     0.501450000000     0.0387612  
H164     H      0.287330000000     0.863330000000     0.463900000000     0.0415534  
H165     H      0.338290000000     0.807190000000     0.463460000000     0.0422457  
H166     H      0.200030000000     0.723870000000     0.550700000000     0.0416242  
H167     H      0.133020000000     0.706200000000     0.524480000000     0.0526602  
H168     H      0.312470000000     0.894960000000     0.549380000000     0.0378151  
H169     H      0.715990000000     0.405130000000     0.236450000000     0.0451342  
H170     H      0.758900000000     0.482980000000     0.365610000000     0.0454813  
H171     H      0.846890000000     0.482350000000     0.269810000000     0.0825231  
H172     H      0.598010000000     0.433660000000     0.178140000000     0.0336291  
H173     H      0.814400000000     0.521790000000     0.393780000000     0.0798232  
H174     H      0.721480000000     0.464310000000     0.147230000000     0.0366874  
H175     H      0.626420000000     0.470490000000     0.236040000000     0.0369712  
H176     H      0.670880000000     0.476560000000     0.091040000000     0.0365384  
H177     H      0.903040000000     0.471940000000     0.322450000000    -0.0126219  
H178     H      0.769770000000     0.414680000000     0.288570000000     0.0411788  
H179     H      0.815920000000     0.472040000000     0.417370000000     0.0453729  
H180     H      0.705760000000     0.536730000000     0.223100000000     0.0434694  
H181     H      0.790390000000     0.438250000000     0.356840000000     0.0364769  
H182     H      0.574820000000     0.483680000000     0.180410000000     0.0357652  
H183     H      0.692950000000     0.511510000000     0.153190000000     0.0398285  
H184     H      0.637580000000     0.515180000000     0.205160000000     0.039198   
H185     H      0.759300000000     0.546220000000     0.275310000000     0.0598719  
H186     H      0.840770000000     0.438110000000     0.302520000000     0.05221    
H187     H      0.663180000000     0.428990000000     0.117910000000     0.032485   
H188     H      0.269680000000     0.576010000000     0.207400000000     0.0429672  
H189     H      0.127130000000     0.516970000000     0.258540000000     0.040132   
H190     H      0.222310000000     0.521070000000     0.347230000000     0.0818936  
H191     H      0.315100000000     0.473750000000     0.098120000000     0.0279599  
H192     H      0.097660000000     0.552870000000     0.316050000000     0.0528679  
H193     H      0.347290000000     0.506960000000     0.223790000000     0.0367146  
H194     H      0.259490000000     0.511270000000     0.127950000000     0.0371753  
H195     H      0.403660000000     0.520030000000     0.171970000000     0.035442   
H196     H      0.171210000000     0.507890000000     0.403150000000    -0.014219   
H197     H      0.216020000000     0.583500000000     0.259950000000     0.0571788  
H198     H      0.075700000000     0.502340000000     0.314480000000     0.0326372  
H199     H      0.260260000000     0.444040000000     0.216610000000     0.045209   
H200     H      0.138370000000     0.471980000000     0.288910000000     0.0375338  
H201     H      0.316660000000     0.524540000000     0.076880000000     0.0387944  
H202     H      0.341120000000     0.553000000000     0.193580000000     0.0389318  
H203     H      0.291010000000     0.555480000000     0.138880000000     0.0388509  
H204     H      0.206860000000     0.451520000000     0.269360000000     0.0423954  
H205     H      0.192920000000     0.474600000000     0.340530000000     0.0531836  
H206     H      0.379940000000     0.470400000000     0.169110000000     0.0272759  
H207     H      0.286400000000     0.435340000000     0.771630000000     0.0439156  
H208     H      0.148050000000     0.491790000000     0.722860000000     0.0452209  
H209     H      0.236160000000     0.489220000000     0.627060000000     0.0827582  
H210     H      0.326830000000     0.543170000000     0.877860000000     0.0573364  
H211     H      0.115970000000     0.454390000000     0.667910000000     0.0913697  
H212     H      0.366650000000     0.499900000000     0.758670000000     0.0386575  
H213     H      0.271070000000     0.506490000000     0.846720000000     0.0413688  
H214     H      0.417790000000     0.487750000000     0.815460000000     0.0384819  
H215     H      0.180200000000     0.502720000000     0.575420000000    -0.0125511  
H216     H      0.233640000000     0.426730000000     0.718410000000     0.0598448  
H217     H      0.092120000000     0.504000000000     0.671510000000     0.0434753  
H218     H      0.279770000000     0.567010000000     0.756950000000     0.0498145  
H219     H      0.155830000000     0.536720000000     0.691270000000     0.0370071  
H220     H      0.322330000000     0.494450000000     0.903300000000     0.0447587  
H221     H      0.355550000000     0.456170000000     0.790900000000     0.0392618  
H222     H      0.300740000000     0.459960000000     0.841450000000     0.0389177  
H223     H      0.226980000000     0.558420000000     0.703800000000     0.0424518  
H224     H      0.206700000000     0.535230000000     0.636160000000     0.0530956  
H225     H      0.395880000000     0.538330000000     0.814340000000     0.0388681  
H226     H      0.722270000000     0.554050000000     0.789750000000     0.0486055  
H227     H      0.865620000000     0.506250000000     0.735330000000     0.0393275  
H228     H      0.770360000000     0.504260000000     0.646600000000     0.0877883  
H229     H      0.678750000000     0.444070000000     0.892260000000     0.0331569  
H230     H      0.891750000000     0.544870000000     0.677820000000     0.0476189  
H231     H      0.647110000000     0.484100000000     0.770700000000     0.0440898  
H232     H      0.735690000000     0.483450000000     0.866110000000     0.0362583  
H233     H      0.590980000000     0.493160000000     0.822470000000     0.0515819  
H234     H      0.822320000000     0.494230000000     0.590710000000     0.00450675 
H235     H      0.774630000000     0.566010000000     0.736780000000     0.0562067  
H236     H      0.917970000000     0.496380000000     0.679610000000     0.0351257  
H237     H      0.737050000000     0.423080000000     0.774890000000     0.0480519  
H238     H      0.857710000000     0.460780000000     0.704560000000     0.042096   
H239     H      0.679820000000     0.492640000000     0.918460000000     0.036736   
H240     H      0.653080000000     0.528840000000     0.802960000000     0.0580131  
H241     H      0.704350000000     0.528480000000     0.858090000000     0.0432727  
H242     H      0.789580000000     0.435020000000     0.722130000000     0.0466076  
H243     H      0.802720000000     0.459770000000     0.653060000000     0.0678572  
H244     H      0.616750000000     0.444490000000     0.825280000000     0.0342159  
H245     H      0.732300000000     0.701240000000     0.054480000000     0.0430565  
H246     H      0.874990000000     0.754950000000     0.997030000000     0.040131   
H247     H      0.776850000000     0.840390000000     0.996680000000     0.0832254  
H248     H      0.683810000000     0.591540000000     0.954340000000     0.0392866  
H249     H      0.902320000000     0.812860000000     0.033330000000     0.0464205  
H250     H      0.656150000000     0.717970000000     0.983240000000     0.0382263  
H251     H      0.741450000000     0.619890000000     0.990870000000     0.032398   
H252     H      0.598390000000     0.668950000000     0.996880000000     0.0367997  
H253     H      0.827140000000     0.897760000000     0.983570000000    -0.0143853  
H254     H      0.785010000000     0.754720000000     0.061870000000     0.0551318  
H255     H      0.924830000000     0.813110000000     0.983100000000     0.0300564  
H256     H      0.743740000000     0.708210000000     0.922630000000     0.0474648  
H257     H      0.864150000000     0.784770000000     0.951630000000     0.0379759  
H258     H      0.683450000000     0.570510000000     0.005270000000     0.0404431  
H259     H      0.661260000000     0.689450000000     0.030490000000     0.042216   
H260     H      0.710610000000     0.632980000000     0.034960000000     0.0371274  
H261     H      0.796370000000     0.761840000000     0.930040000000     0.0407078  
H262     H      0.808330000000     0.833970000000     0.951660000000     0.0543734  
H263     H      0.623580000000     0.661480000000     0.948460000000     0.0397835  
H264     H      0.699170000000     0.266740000000     0.953520000000     0.0432643  
H265     H      0.839550000000     0.220650000000     0.006700000000     0.03797    
H266     H      0.754720000000     0.121980000000     0.002940000000     0.0831866  
H267     H      0.659240000000     0.370030000000     0.063870000000     0.0327792  
H268     H      0.873850000000     0.169260000000     0.966710000000     0.0499883  
H269     H      0.619400000000     0.253890000000     0.019950000000     0.0373994  
H270     H      0.716650000000     0.340250000000     0.027450000000     0.0355187  
H271     H      0.569090000000     0.311220000000     0.008300000000     0.0366139  
H272     H      0.813200000000     0.071850000000     0.012880000000    -0.00587913 
H273     H      0.752810000000     0.214850000000     0.942660000000     0.0574561  
H274     H      0.897390000000     0.170200000000     0.016490000000     0.0366573  
H275     H      0.708860000000     0.249330000000     0.084560000000     0.0457644  
H276     H      0.833890000000     0.187050000000     0.050390000000     0.0353749  
H277     H      0.667460000000     0.398000000000     0.017070000000     0.0376179  
H278     H      0.631060000000     0.285460000000     0.975890000000     0.0362414  
H279     H      0.687660000000     0.336130000000     0.980380000000     0.0361417  
H280     H      0.762550000000     0.197370000000     0.073660000000     0.0421142  
H281     H      0.785480000000     0.130490000000     0.048130000000     0.0520041  
H282     H      0.592620000000     0.311730000000     0.058180000000     0.0342896  
H283     H      0.231550000000     0.799140000000     0.947570000000     0.0482001  
H284     H      0.374310000000     0.741490000000     0.999600000000     0.0347027  
H285     H      0.276110000000     0.656140000000     0.996190000000     0.0782546  
H286     H      0.181920000000     0.900410000000     0.055720000000     0.039293   
H287     H      0.400620000000     0.685240000000     0.959730000000     0.0491226  
H288     H      0.155130000000     0.777740000000     0.017010000000     0.0420653  
H289     H      0.241000000000     0.875700000000     0.018260000000     0.0384339  
H290     H      0.097720000000     0.827540000000     0.006530000000     0.0503185  
H291     H      0.326190000000     0.598120000000     0.005420000000    -0.00690132 
H292     H      0.284180000000     0.746250000000     0.936350000000     0.0579025  
H293     H      0.424360000000     0.682920000000     0.009380000000     0.0368053  
H294     H      0.243250000000     0.782950000000     0.078590000000     0.0492414  
H295     H      0.364010000000     0.709270000000     0.043480000000     0.0353965  
H296     H      0.183930000000     0.926460000000     0.007150000000     0.0395662  
H297     H      0.161080000000     0.809370000000     0.971860000000     0.0496813  
H298     H      0.211180000000     0.866280000000     0.972520000000     0.0400617  
H299     H      0.295960000000     0.730070000000     0.067340000000     0.0426939  
H300     H      0.307920000000     0.659980000000     0.041290000000     0.0518247  
H301     H      0.123090000000     0.832670000000     0.055170000000     0.0410879  
H302     H      0.264990000000     0.299410000000     0.050630000000     0.0417649  
H303     H      0.121350000000     0.242240000000     0.999730000000     0.038705   
H304     H      0.219260000000     0.156550000000     0.004210000000     0.0861798  
H305     H      0.313890000000     0.399890000000     0.941700000000     0.0352395  
H306     H      0.095170000000     0.186180000000     0.040140000000     0.0399929  
H307     H      0.340510000000     0.277030000000     0.980190000000     0.0372907  
H308     H      0.255270000000     0.375560000000     0.980070000000     0.0372005  
H309     H      0.398370000000     0.326480000000     0.989870000000     0.0332826  
H310     H      0.169210000000     0.098620000000     0.995680000000    -0.015906   
H311     H      0.212110000000     0.246980000000     0.062680000000     0.0540733  
H312     H      0.071060000000     0.184000000000     0.990650000000     0.0275913  
H313     H      0.252020000000     0.282430000000     0.919830000000     0.0458433  
H314     H      0.131540000000     0.209590000000     0.956110000000     0.0384382  
H315     H      0.312790000000     0.425920000000     0.990320000000     0.0338772  
H316     H      0.335400000000     0.308770000000     0.025370000000     0.0401946  
H317     H      0.285730000000     0.366000000000     0.025360000000     0.0393005  
H318     H      0.199150000000     0.229920000000     0.931900000000     0.0407508  
H319     H      0.187640000000     0.160000000000     0.958920000000     0.0552651  
H320     H      0.372470000000     0.331640000000     0.941510000000     0.0338265  
H321     H      0.732620000000     0.923170000000     0.718950000000     0.0456778  
H322     H      0.769500000000     0.993280000000     0.852390000000     0.0450235  
H323     H      0.863300000000     0.998640000000     0.762400000000     0.0830252  
H324     H      0.612010000000     0.951620000000     0.671740000000     0.0343989  
H325     H      0.823460000000     0.029950000000     0.886070000000     0.0786955  
H326     H      0.733220000000     0.990380000000     0.633300000000     0.0362354  
H327     H      0.643920000000     0.986970000000     0.727890000000     0.0382155  
H328     H      0.677560000000     0.004750000000     0.581440000000     0.0419572  
H329     H      0.916070000000     0.984440000000     0.817520000000    -0.0148273  
H330     H      0.786000000000     0.929760000000     0.771850000000     0.0409406  
H331     H      0.822820000000     0.978870000000     0.906760000000     0.0442115  
H332     H      0.720850000000     0.055220000000     0.714440000000     0.0465883  
H333     H      0.801410000000     0.949030000000     0.842700000000     0.0366746  
H334     H      0.588560000000     0.001340000000     0.675840000000     0.0410526  
H335     H      0.702550000000     0.035260000000     0.644130000000     0.0427486  
H336     H      0.651300000000     0.033290000000     0.698320000000     0.0446226  
H337     H      0.774040000000     0.061800000000     0.767500000000     0.0602709  
H338     H      0.855150000000     0.952230000000     0.791500000000     0.05285    
H339     H      0.676660000000     0.954090000000     0.603210000000     0.0336381  
H340     H      0.234840000000     0.085120000000     0.772050000000     0.0458386  
H341     H      0.267220000000     0.998400000000     0.646470000000     0.0372785  
H342     H      0.361300000000     0.997520000000     0.736480000000     0.0793765  
H343     H      0.114580000000     0.067160000000     0.826980000000     0.0331115  
H344     H      0.321240000000     0.956670000000     0.617890000000     0.0489485  
H345     H      0.232810000000     0.029250000000     0.865020000000     0.0376712  
H346     H      0.142530000000     0.026690000000     0.771100000000     0.0374918  
H347     H      0.178410000000     0.021810000000     0.918620000000     0.0390262  
H348     H      0.414460000000     0.003840000000     0.681070000000    -0.00981214 
H349     H      0.287220000000     0.070050000000     0.719870000000     0.0433307  
H350     H      0.319870000000     0.004660000000     0.590760000000     0.0360121  
H351     H      0.216650000000     0.955110000000     0.791140000000     0.0454775  
H352     H      0.300460000000     0.042460000000     0.651750000000     0.0392855  
H353     H      0.087140000000     0.019450000000     0.823480000000     0.0403852  
H354     H      0.201890000000     0.983630000000     0.858750000000     0.0409128  
H355     H      0.148750000000     0.982150000000     0.803610000000     0.0414702  
H356     H      0.268790000000     0.940070000000     0.738800000000     0.0562705  
H357     H      0.355050000000     0.041830000000     0.703790000000     0.0544546  
H358     H      0.174850000000     0.068800000000     0.889850000000     0.0329954  
H359     H      0.207000000000     0.071300000000     0.221080000000     0.0471914  
H360     H      0.261120000000     0.024320000000     0.365000000000     0.0397886  
H361     H      0.351470000000     0.026960000000     0.271190000000     0.0867714  
H362     H      0.107060000000     0.958540000000     0.179000000000     0.0758822  
H363     H      0.318070000000     0.063620000000     0.392090000000     0.0497174  
H364     H      0.226890000000     0.001740000000     0.145320000000     0.0429171  
H365     H      0.132870000000     0.998960000000     0.235280000000     0.03989    
H366     H      0.173970000000     0.009400000000     0.089800000000     0.0494865  
H367     H      0.406730000000     0.017570000000     0.323580000000     0.00290767 
H368     H      0.259200000000     0.084610000000     0.273940000000     0.0558158  
H369     H      0.315690000000     0.015100000000     0.418290000000     0.0342035  
H370     H      0.225600000000     0.940780000000     0.235480000000     0.0538317  
H371     H      0.292820000000     0.979570000000     0.356750000000     0.0410988  
H372     H      0.079570000000     0.006320000000     0.179990000000     0.0446968  
H373     H      0.193590000000     0.045610000000     0.151640000000     0.0501605  
H374     H      0.139250000000     0.043970000000     0.203520000000     0.0387537  
H375     H      0.277710000000     0.954050000000     0.288350000000     0.0478007  
H376     H      0.345770000000     0.981240000000     0.301990000000     0.0668665  
H377     H      0.173220000000     0.960640000000     0.115500000000     0.042613   
H378     H      0.771870000000     0.054010000000     0.212990000000     0.0431215  
H379     H      0.630640000000     0.996840000000     0.263050000000     0.0452819  
H380     H      0.724400000000     0.994060000000     0.353180000000     0.0820132  
H381     H      0.819790000000     0.949790000000     0.105600000000     0.0649457  
H382     H      0.600900000000     0.032610000000     0.320040000000     0.0732575  
H383     H      0.850890000000     0.988960000000     0.228670000000     0.0379642  
H384     H      0.761780000000     0.985370000000     0.133940000000     0.0426559  
H385     H      0.905880000000     0.003310000000     0.176060000000     0.0391692  
H386     H      0.671100000000     0.980270000000     0.407660000000    -0.0127055  
H387     H      0.718370000000     0.060930000000     0.265740000000     0.0583677  
H388     H      0.577820000000     0.982610000000     0.318320000000     0.0443523  
H389     H      0.763730000000     0.921930000000     0.222070000000     0.0498128  
H390     H      0.639560000000     0.950820000000     0.292610000000     0.037648   
H391     H      0.817010000000     0.999310000000     0.081540000000     0.0486131  
H392     H      0.841930000000     0.033790000000     0.197340000000     0.0396798  
H393     H      0.790810000000     0.031700000000     0.142930000000     0.0398085  
H394     H      0.709920000000     0.928860000000     0.274530000000     0.0419538  
H395     H      0.692840000000     0.949440000000     0.344440000000     0.0531931  
H396     H      0.884270000000     0.952650000000     0.173960000000     0.0386711  
H397     H      0.939530000000     0.232310000000     0.767250000000     0.0514506  
H398     H      0.025880000000     0.268970000000     0.640700000000     0.0411222  
H399     H      0.019870000000     0.362520000000     0.731280000000     0.0809445  
H400     H      0.960980000000     0.113700000000     0.821610000000     0.0660665  
H401     H      0.063760000000     0.326450000000     0.612930000000     0.0560529  
H402     H      0.997440000000     0.235030000000     0.860620000000     0.0377349  
H403     H      0.002220000000     0.143450000000     0.768140000000     0.0417666  
H404     H      0.006090000000     0.180290000000     0.914940000000     0.0363673  
H405     H      0.011690000000     0.415790000000     0.676650000000    -0.0117696  
H406     H      0.952090000000     0.284460000000     0.714090000000     0.0448273  
H407     H      0.016450000000     0.321580000000     0.585150000000     0.0362113  
H408     H      0.069940000000     0.220950000000     0.787040000000     0.0424665  
H409     H      0.979580000000     0.298950000000     0.645870000000     0.0416835  
H410     H      0.010190000000     0.088990000000     0.822260000000     0.0471464  
H411     H      0.042810000000     0.203800000000     0.854920000000     0.0378968  
H412     H      0.045470000000     0.150980000000     0.801890000000     0.0378425  
H413     H      0.082500000000     0.273120000000     0.733870000000     0.0561542  
H414     H      0.976340000000     0.353800000000     0.698200000000     0.0561995  
H415     H      0.957970000000     0.179120000000     0.888240000000     0.0408523  
H416     H      0.927130000000     0.731510000000     0.729280000000     0.0471495  
H417     H      0.008000000000     0.862390000000     0.763380000000     0.0389059  
H418     H      0.013990000000     0.768790000000     0.853850000000     0.0816216  
H419     H      0.944420000000     0.675650000000     0.609440000000     0.0390036  
H420     H      0.049000000000     0.890810000000     0.818070000000     0.0503144  
H421     H      0.989900000000     0.642620000000     0.728180000000     0.0380307  
H422     H      0.982890000000     0.733610000000     0.635160000000     0.0370884  
H423     H      0.998460000000     0.587910000000     0.674750000000     0.0390758  
H424     H      0.005690000000     0.821730000000     0.909280000000    -0.011586   
H425     H      0.940240000000     0.784310000000     0.781640000000     0.0407824  
H426     H      0.999850000000     0.915690000000     0.818510000000     0.0359567  
H427     H      0.057310000000     0.720420000000     0.707800000000     0.0429019  
H428     H      0.964730000000     0.853760000000     0.796870000000     0.0368455  
H429     H      0.991490000000     0.679400000000     0.581050000000     0.0387496  
H430     H      0.033200000000     0.650710000000     0.694580000000     0.0390853  
H431     H      0.029130000000     0.703580000000     0.640560000000     0.0383399  
H432     H      0.070410000000     0.773150000000     0.760210000000     0.0553942  
H433     H      0.968330000000     0.799740000000     0.849330000000     0.0526533  
H434     H      0.949260000000     0.612640000000     0.673960000000     0.0397681  
H435     H      0.935790000000     0.727490000000     0.259670000000     0.051051   
H436     H      0.024890000000     0.765670000000     0.135360000000     0.0408866  
H437     H      0.020100000000     0.856260000000     0.229080000000     0.0817541  
H438     H      0.954190000000     0.608480000000     0.315390000000     0.0582293  
H439     H      0.063850000000     0.823940000000     0.110590000000     0.0506268  
H440     H      0.991490000000     0.729620000000     0.352710000000     0.0452582  
H441     H      0.996800000000     0.636410000000     0.261810000000     0.0421845  
H442     H      0.997440000000     0.676310000000     0.408030000000     0.0572909  
H443     H      0.012570000000     0.911430000000     0.176340000000    -0.0126255  
H444     H      0.950340000000     0.780540000000     0.208030000000     0.0442236  
H445     H      0.017140000000     0.819910000000     0.081620000000     0.0361223  
H446     H      0.065620000000     0.712380000000     0.280860000000     0.0524701  
H447     H      0.978950000000     0.796160000000     0.141170000000     0.0418851  
H448     H      0.002870000000     0.582680000000     0.316860000000     0.0484487  
H449     H      0.036540000000     0.697600000000     0.348650000000     0.0657699  
H450     H      0.039620000000     0.643820000000     0.296170000000     0.0485382  
H451     H      0.080200000000     0.765460000000     0.229170000000     0.0573354  
H452     H      0.976300000000     0.849400000000     0.195880000000     0.0562409  
H453     H      0.950400000000     0.674260000000     0.379420000000     0.0410533  
H454     H      0.042310000000     0.212690000000     0.214660000000     0.0438988  
H455     H      0.991390000000     0.354280000000     0.266990000000     0.0389508  
H456     H      0.998480000000     0.263730000000     0.360390000000     0.0815654  
H457     H      0.930200000000     0.168960000000     0.115460000000     0.0331085  
H458     H      0.032830000000     0.385210000000     0.319630000000     0.0410444  
H459     H      0.974720000000     0.134170000000     0.233140000000     0.0376401  
H460     H      0.967690000000     0.227310000000     0.142180000000     0.0363131  
H461     H      0.984230000000     0.080770000000     0.178670000000     0.0356701  
H462     H      0.990290000000     0.318790000000     0.414070000000    -0.0117353  
H463     H      0.055040000000     0.265890000000     0.266650000000     0.0548243  
H464     H      0.983300000000     0.409250000000     0.320670000000     0.0350872  
H465     H      0.912010000000     0.223290000000     0.235780000000     0.0451534  
H466     H      0.948650000000     0.346570000000     0.301360000000     0.0372945  
H467     H      0.976940000000     0.174880000000     0.086880000000     0.0354605  
H468     H      0.018480000000     0.143400000000     0.200420000000     0.0389617  
H469     H      0.014340000000     0.197820000000     0.147190000000     0.0391987  
H470     H      0.924780000000     0.276490000000     0.287850000000     0.0407516  
H471     H      0.952860000000     0.294620000000     0.355190000000     0.0528053  
H472     H      0.935060000000     0.105650000000     0.177160000000     0.0340404  
N1       N      0.498110000000     0.128500000000     0.373770000000    -0.214695   
N2       N      0.503750000000     0.190010000000     0.312840000000    -0.0867949  
N3       N      0.476660000000     0.311890000000     0.189600000000    -0.111989   
N4       N      0.483490000000     0.371750000000     0.127070000000    -0.192549   
N5       N      0.488160000000     0.872800000000     0.368520000000    -0.216333   
N6       N      0.480940000000     0.813040000000     0.306270000000    -0.0875097  
N7       N      0.505190000000     0.688730000000     0.185280000000    -0.111781   
N8       N      0.498860000000     0.627370000000     0.124590000000    -0.189584   
N9       N      0.520320000000     0.622880000000     0.868040000000    -0.21267    
N10      N      0.523710000000     0.683630000000     0.805820000000    -0.087329   
N11      N      0.483100000000     0.805830000000     0.686490000000    -0.110863   
N12      N      0.485020000000     0.868170000000     0.625870000000    -0.182825   
N13      N      0.519810000000     0.123600000000     0.629460000000    -0.213906   
N14      N      0.522010000000     0.184330000000     0.691640000000    -0.0868691  
N15      N      0.477780000000     0.306430000000     0.809620000000    -0.111861   
N16      N      0.479660000000     0.368420000000     0.870540000000    -0.189347   
N17      N      0.876390000000     0.363010000000     0.500900000000    -0.216026   
N18      N      0.818930000000     0.298730000000     0.509300000000    -0.0872621  
N19      N      0.695190000000     0.176230000000     0.489980000000    -0.109581   
N20      N      0.631170000000     0.118560000000     0.498770000000    -0.185136   
N21      N      0.861630000000     0.619600000000     0.497900000000    -0.21014    
N22      N      0.797370000000     0.676240000000     0.486930000000    -0.0868272  
N23      N      0.673970000000     0.799570000000     0.499190000000    -0.111471   
N24      N      0.616350000000     0.863010000000     0.489720000000    -0.189805   
N25      N      0.376040000000     0.134880000000     0.502490000000    -0.216161   
N26      N      0.318920000000     0.199340000000     0.509410000000    -0.0871837  
N27      N      0.195620000000     0.321130000000     0.486310000000    -0.1104     
N28      N      0.131740000000     0.378820000000     0.493840000000    -0.18602    
N29      N      0.116990000000     0.634360000000     0.478150000000    -0.211842   
N30      N      0.174770000000     0.699120000000     0.474180000000    -0.0866245  
N31      N      0.296160000000     0.819680000000     0.512380000000    -0.111299   
N32      N      0.360480000000     0.877960000000     0.509060000000    -0.185388   
N33      N      0.864060000000     0.484810000000     0.374000000000    -0.212898   
N34      N      0.800520000000     0.488440000000     0.315510000000    -0.0864213  
N35      N      0.676360000000     0.463060000000     0.194550000000    -0.112042   
N36      N      0.618030000000     0.473820000000     0.131100000000    -0.189697   
N37      N      0.118480000000     0.513830000000     0.363690000000    -0.218005   
N38      N      0.176940000000     0.524080000000     0.300240000000    -0.0864856  
N39      N      0.300880000000     0.503400000000     0.177890000000    -0.112114   
N40      N      0.364710000000     0.509790000000     0.119660000000    -0.192371   
N41      N      0.131200000000     0.494200000000     0.618920000000    -0.213131   
N42      N      0.194490000000     0.485340000000     0.677280000000    -0.0859808  
N43      N      0.316850000000     0.508570000000     0.800110000000    -0.110512   
N44      N      0.374880000000     0.501740000000     0.863810000000    -0.186896   
N45      N      0.874390000000     0.503980000000     0.630320000000    -0.211848   
N46      N      0.815460000000     0.510010000000     0.693610000000    -0.0871115  
N47      N      0.694090000000     0.479020000000     0.815900000000    -0.111282   
N48      N      0.630760000000     0.484250000000     0.874770000000    -0.185232   
N49      N      0.880420000000     0.860570000000     0.994940000000    -0.217427   
N50      N      0.823800000000     0.795210000000     0.002480000000    -0.0823082  
N51      N      0.701640000000     0.670970000000     0.981990000000    -0.112602   
N52      N      0.636090000000     0.614690000000     0.991870000000    -0.185048   
N53      N      0.860170000000     0.117140000000     0.003130000000    -0.2101     
N54      N      0.794620000000     0.173680000000     0.999380000000    -0.092753   
N55      N      0.670420000000     0.293990000000     0.027910000000    -0.113179   
N56      N      0.613580000000     0.359180000000     0.018980000000    -0.18877    
N57      N      0.379620000000     0.635950000000     0.996590000000    -0.213836   
N58      N      0.322980000000     0.701640000000     0.992680000000    -0.093394   
N59      N      0.200960000000     0.824150000000     0.022050000000    -0.111599   
N60      N      0.135900000000     0.881340000000     0.014030000000    -0.184657   
N61      N      0.115740000000     0.136800000000     0.003160000000    -0.220926   
N62      N      0.172560000000     0.202290000000     0.006980000000    -0.0822483  
N63      N      0.294950000000     0.323780000000     0.975710000000    -0.110829   
N64      N      0.360430000000     0.380490000000     0.982690000000    -0.192931   
N65      N      0.873830000000     0.993400000000     0.867330000000    -0.212431   
N66      N      0.814170000000     0.001740000000     0.805400000000    -0.0842278  
N67      N      0.690930000000     0.983160000000     0.682620000000    -0.112175   
N68      N      0.628310000000     0.992350000000     0.623750000000    -0.188123   
N69      N      0.371380000000     0.995700000000     0.631550000000    -0.212882   
N70      N      0.311540000000     0.993450000000     0.694280000000    -0.0900986  
N71      N      0.190610000000     0.031630000000     0.815130000000    -0.112582   
N72      N      0.128300000000     0.025860000000     0.875270000000    -0.18926    
N73      N      0.365760000000     0.022720000000     0.375440000000    -0.213776   
N74      N      0.303350000000     0.029700000000     0.315380000000    -0.0874111  
N75      N      0.182570000000     0.995600000000     0.192990000000    -0.111666   
N76      N      0.122660000000     0.998660000000     0.130310000000    -0.186194   
N77      N      0.619920000000     0.993130000000     0.368080000000    -0.21588    
N78      N      0.679790000000     0.001130000000     0.305890000000    -0.0846889  
N79      N      0.804030000000     0.981760000000     0.183650000000    -0.10995    
N80      N      0.866670000000     0.990740000000     0.124320000000    -0.18511    
N81      N      0.020860000000     0.373380000000     0.626480000000    -0.213659   
N82      N      0.027200000000     0.313140000000     0.688950000000    -0.0861377  
N83      N      0.994810000000     0.191760000000     0.811620000000    -0.10963    
N84      N      0.997660000000     0.130060000000     0.872710000000    -0.184661   
N85      N      0.011500000000     0.873330000000     0.868200000000    -0.213264   
N86      N      0.015660000000     0.813100000000     0.805720000000    -0.087768   
N87      N      0.981980000000     0.690750000000     0.684550000000    -0.111643   
N88      N      0.987180000000     0.628840000000     0.623750000000    -0.185526   
N89      N      0.020580000000     0.870310000000     0.124870000000    -0.216283   
N90      N      0.026420000000     0.808180000000     0.185090000000    -0.0864229  
N91      N      0.989420000000     0.685500000000     0.304420000000    -0.109346   
N92      N      0.990870000000     0.625090000000     0.366400000000    -0.1823     
N93      N      0.997000000000     0.368780000000     0.371300000000    -0.219566   
N94      N      0.999970000000     0.306580000000     0.310960000000    -0.0881589  
N95      N      0.967130000000     0.183360000000     0.190640000000    -0.112188   
N96      N      0.974390000000     0.123100000000     0.128460000000    -0.19252    
O1       O      0.983620000000     0.107510000000     0.059220000000    -0.627274   
O2       O      0.010860000000     0.888130000000     0.056260000000    -0.567664   
O3       O      0.936390000000     0.995780000000     0.108650000000    -0.615527   
O4       O      0.053740000000     0.998810000000     0.110990000000    -0.625995   
O5       O      0.106700000000     0.003100000000     0.060660000000    -0.625672   
O6       O      0.886350000000     0.991810000000     0.055430000000    -0.559795   
O7       O      0.007550000000     0.938940000000     0.108870000000    -0.608451   
O8       O      0.986450000000     0.054900000000     0.110080000000    -0.63227    
O9       O      0.040510000000     0.961720000000     0.039620000000    -1.48681    
O10      O      0.953960000000     0.035410000000     0.039020000000    -1.47203    
O11      O      0.954570000000     0.947680000000     0.038980000000    -1.05423    
O12      O      0.035600000000     0.043610000000     0.043150000000    -1.64516    
O13      O      0.008010000000     0.889560000000     0.937910000000    -0.56044    
O14      O      0.996090000000     0.111380000000     0.942030000000    -0.606438   
O15      O      0.892740000000     0.931180000000     0.994370000000    -0.555178   
O16      O      0.113530000000     0.949240000000     0.007280000000    -0.613105   
O17      O      0.103450000000     0.066280000000     0.001560000000    -0.62749    
O18      O      0.883350000000     0.049300000000     0.000250000000    -0.551155   
O19      O      0.942630000000     0.995830000000     0.886670000000    -0.556149   
O20      O      0.059970000000     0.011220000000     0.890550000000    -0.571908   
O21      O      0.889700000000     0.990880000000     0.937050000000    -0.561598   
O22      O      0.109940000000     0.015680000000     0.943760000000    -0.621655   
O23      O      0.948360000000     0.883540000000     0.995100000000    -0.565573   
O24      O      0.930710000000     0.105060000000     0.003650000000    -0.609494   
O25      O      0.047880000000     0.113930000000     0.000540000000    -0.628613   
O26      O      0.066170000000     0.893550000000     0.003530000000    -0.556913   
O27      O      0.005310000000     0.942250000000     0.887090000000    -0.571849   
O28      O      0.999300000000     0.060430000000     0.889510000000    -0.560856   
O29      O      0.036420000000     0.043440000000     0.960810000000    -1.48415    
O30      O      0.962460000000     0.956400000000     0.956830000000    -1.36977    
O31      O      0.949770000000     0.038000000000     0.951850000000    -1.05369    
O32      O      0.045440000000     0.956700000000     0.952630000000    -1.06005    
O33      O      0.998410000000     0.387630000000     0.440350000000    -0.620226   
O34      O      0.991390000000     0.608470000000     0.435990000000    -0.563855   
O35      O      0.933990000000     0.489040000000     0.388620000000    -0.602962   
O36      O      0.050450000000     0.504410000000     0.384110000000    -0.627188   
O37      O      0.104170000000     0.508280000000     0.433640000000    -0.620182   
O38      O      0.884520000000     0.488620000000     0.442540000000    -0.56623    
O39      O      0.993840000000     0.555980000000     0.385000000000    -0.604113   
O40      O      0.993740000000     0.438430000000     0.387790000000    -0.635503   
O41      O      0.033260000000     0.540680000000     0.454240000000    -1.48202    
O42      O      0.957500000000     0.455350000000     0.458760000000    -1.48024    
O43      O      0.946130000000     0.542180000000     0.456390000000    -1.06339    
O44      O      0.039590000000     0.458800000000     0.453740000000    -1.64821    
O45      O      0.990410000000     0.610540000000     0.554520000000    -0.568627   
O46      O      0.012100000000     0.389420000000     0.557110000000    -0.608777   
O47      O      0.883240000000     0.551420000000     0.501000000000    -0.546141   
O48      O      0.104000000000     0.564200000000     0.485640000000    -0.609542   
O49      O      0.110370000000     0.447120000000     0.494640000000    -0.623998   
O50      O      0.890240000000     0.433310000000     0.500780000000    -0.565652   
O51      O      0.942960000000     0.500420000000     0.610210000000    -0.56929    
O52      O      0.061340000000     0.499780000000     0.604640000000    -0.572045   
O53      O      0.889200000000     0.497500000000     0.560600000000    -0.553381   
O54      O      0.110630000000     0.499630000000     0.550580000000    -0.610469   
O55      O      0.931850000000     0.606160000000     0.497970000000    -0.568536   
O56      O      0.944610000000     0.384480000000     0.497050000000    -0.615419   
O57      O      0.061740000000     0.392430000000     0.497820000000    -0.620997   
O58      O      0.049540000000     0.612920000000     0.488850000000    -0.569664   
O59      O      0.996090000000     0.559710000000     0.606990000000    -0.567627   
O60      O      0.008890000000     0.441740000000     0.608210000000    -0.564053   
O61      O      0.041370000000     0.461710000000     0.535780000000    -1.47704    
O62      O      0.956550000000     0.537390000000     0.538180000000    -1.38171    
O63      O      0.954910000000     0.455160000000     0.546540000000    -1.06155    
O64      O      0.038430000000     0.549080000000     0.541340000000    -1.06705    
O65      O      0.604030000000     0.991170000000     0.437840000000    -0.619923   
O66      O      0.384370000000     0.011310000000     0.443740000000    -0.57439    
O67      O      0.493170000000     0.941720000000     0.387420000000    -0.606292   
O68      O      0.494260000000     0.059010000000     0.390500000000    -0.610028   
O69      O      0.498390000000     0.109920000000     0.443050000000    -0.628213   
O70      O      0.489430000000     0.889120000000     0.438220000000    -0.57829    
O71      O      0.434720000000     0.011320000000     0.390710000000    -0.59895    
O72      O      0.550980000000     0.994900000000     0.387540000000    -0.618883   
O73      O      0.457280000000     0.042260000000     0.461260000000    -1.48072    
O74      O      0.532730000000     0.956520000000     0.457090000000    -1.47357    
O75      O      0.444980000000     0.955520000000     0.458160000000    -1.06055    
O76      O      0.539030000000     0.038700000000     0.457170000000    -1.65537    
O77      O      0.387130000000     0.001020000000     0.561920000000    -0.567646   
O78      O      0.608610000000     0.995290000000     0.555000000000    -0.614294   
O79      O      0.430370000000     0.891480000000     0.502330000000    -0.564774   
O80      O      0.444100000000     0.113150000000     0.499410000000    -0.608983   
O81      O      0.561030000000     0.105080000000     0.501610000000    -0.625144   
O82      O      0.548180000000     0.884490000000     0.493310000000    -0.574215   
O83      O      0.493010000000     0.937500000000     0.609400000000    -0.558838   
O84      O      0.507190000000     0.055420000000     0.611080000000    -0.574997   
O85      O      0.488540000000     0.886760000000     0.556710000000    -0.56226    
O86      O      0.511150000000     0.107810000000     0.560120000000    -0.60456    
O87      O      0.381830000000     0.946290000000     0.504120000000    -0.565439   
O88      O      0.602740000000     0.933240000000     0.490650000000    -0.617354   
O89      O      0.609510000000     0.050220000000     0.499500000000    -0.618084   
O90      O      0.389440000000     0.064570000000     0.502390000000    -0.578755   
O91      O      0.440250000000     0.997720000000     0.612190000000    -0.560401   
O92      O      0.558530000000     0.994700000000     0.608330000000    -0.575059   
O93      O      0.539990000000     0.035700000000     0.539360000000    -1.47874    
O94      O      0.454850000000     0.960240000000     0.540170000000    -1.37944    
O95      O      0.536190000000     0.948290000000     0.544230000000    -1.05814    
O96      O      0.453320000000     0.042460000000     0.548750000000    -1.05972    
O97      O      0.383180000000     0.448220000000     0.989010000000    -0.625824   
O98      O      0.602200000000     0.429080000000     0.008200000000    -0.574054   
O99      O      0.484980000000     0.386090000000     0.939780000000    -0.613206   
O100     O      0.487660000000     0.388070000000     0.057380000000    -0.624141   
O101     O      0.490000000000     0.440580000000     0.108430000000    -0.628166   
O102     O      0.492380000000     0.436870000000     0.887610000000    -0.57453    
O103     O      0.546440000000     0.381710000000     0.007850000000    -0.609916   
O104     O      0.430370000000     0.392300000000     0.991780000000    -0.626727   
O105     O      0.532140000000     0.454400000000     0.039980000000    -1.4783     
O106     O      0.455740000000     0.459940000000     0.956110000000    -1.47678    
O107     O      0.542630000000     0.450580000000     0.953310000000    -1.07428    
O108     O      0.450390000000     0.459490000000     0.037940000000    -1.63426    
O109     O      0.612970000000     0.547020000000     0.998660000000    -0.569568   
O110     O      0.391820000000     0.565330000000     0.996960000000    -0.605758   
O111     O      0.561090000000     0.490840000000     0.889420000000    -0.566489   
O112     O      0.550550000000     0.486890000000     0.110940000000    -0.611765   
O113     O      0.434670000000     0.505850000000     0.105070000000    -0.629295   
O114     O      0.443260000000     0.498420000000     0.884440000000    -0.574854   
O115     O      0.511550000000     0.606820000000     0.937350000000    -0.562225   
O116     O      0.502180000000     0.608720000000     0.055550000000    -0.572694   
O117     O      0.510040000000     0.554280000000     0.886280000000    -0.560963   
O118     O      0.493740000000     0.557950000000     0.107650000000    -0.619422   
O119     O      0.610450000000     0.487590000000     0.943370000000    -0.572994   
O120     O      0.389420000000     0.501570000000     0.933880000000    -0.606107   
O121     O      0.385350000000     0.508930000000     0.051060000000    -0.628056   
O122     O      0.604490000000     0.484380000000     0.061600000000    -0.575919   
O123     O      0.565660000000     0.602880000000     0.995620000000    -0.564367   
O124     O      0.447520000000     0.612800000000     0.996850000000    -0.570706   
O125     O      0.458850000000     0.541600000000     0.035870000000    -1.46638    
O126     O      0.542510000000     0.533400000000     0.958770000000    -1.37718    
O127     O      0.461870000000     0.546860000000     0.948440000000    -1.05621    
O128     O      0.546390000000     0.540670000000     0.041090000000    -1.05656    


