data_structure

_audit_creation_method RASPA-1.0
_audit_creation_date 2023-5-25
_audit_author_name 'Poobodin Mano'

_cell_length_a    32.5329
_cell_length_b    32.4947
_cell_length_c    32.6074
_cell_angle_alpha 90
_cell_angle_beta  90
_cell_angle_gamma 90
_cell_volume      34470.8

_symmetry_cell_setting          triclinic
_symmetry_space_group_name_Hall 'P 1'
_symmetry_space_group_name_H-M  'P 1'
_symmetry_Int_Tables_number     1

_symmetry_equiv_pos_as_xyz 'x,y,z'

loop_
_atom_site_label
_atom_site_type_symbol
_atom_site_fract_x
_atom_site_fract_y
_atom_site_fract_z
_atom_site_charge
C1       C      0.998950000000     0.099900000000     0.093290000000     0.502155   
C2       C      0.007990000000     0.902950000000     0.098200000000     0.52074    
C3       C      0.904440000000     0.004670000000     0.099570000000     0.518642   
C4       C      0.100860000000     0.000650000000     0.091960000000     0.516439   
C5       C      0.993740000000     0.898320000000     0.901490000000     0.505606   
C6       C      0.001730000000     0.095570000000     0.896910000000     0.52095    
C7       C      0.901800000000     0.899790000000     0.998840000000     0.5091     
C8       C      0.099380000000     0.901730000000     0.004490000000     0.513523   
C9       C      0.096230000000     0.098230000000     0.987410000000     0.515367   
C10      C      0.900770000000     0.097510000000     0.007340000000     0.514893   
C11      C      0.897530000000     0.993170000000     0.902560000000     0.495322   
C12      C      0.095460000000     0.003050000000     0.895910000000     0.513267   
C13      C      0.981960000000     0.404640000000     0.397040000000     0.512451   
C14      C      0.011740000000     0.599170000000     0.401230000000     0.50779    
C15      C      0.896180000000     0.506640000000     0.401980000000     0.520886   
C16      C      0.092130000000     0.495550000000     0.396510000000     0.514527   
C17      C      0.007350000000     0.595010000000     0.598320000000     0.500404   
C18      C      0.995660000000     0.397710000000     0.592940000000     0.507068   
C19      C      0.907720000000     0.605910000000     0.507390000000     0.504896   
C20      C      0.104250000000     0.589370000000     0.492650000000     0.515458   
C21      C      0.087110000000     0.393170000000     0.494210000000     0.512227   
C22      C      0.890800000000     0.408920000000     0.491110000000     0.51227    
C23      C      0.902270000000     0.508210000000     0.599240000000     0.492356   
C24      C      0.098580000000     0.484760000000     0.592520000000     0.516213   
C25      C      0.601200000000     0.010240000000     0.404090000000     0.503955   
C26      C      0.404980000000     0.002090000000     0.395120000000     0.507624   
C27      C      0.517370000000     0.907340000000     0.394040000000     0.510626   
C28      C      0.493360000000     0.102760000000     0.404990000000     0.501976   
C29      C      0.397590000000     0.982810000000     0.591560000000     0.492416   
C30      C      0.593510000000     0.009090000000     0.600300000000     0.513265   
C31      C      0.408860000000     0.893460000000     0.488900000000     0.495163   
C32      C      0.393450000000     0.090790000000     0.494220000000     0.503637   
C33      C      0.589120000000     0.104700000000     0.512120000000     0.503384   
C34      C      0.606140000000     0.909600000000     0.489970000000     0.506727   
C35      C      0.497890000000     0.895450000000     0.590110000000     0.506184   
C36      C      0.492520000000     0.093030000000     0.601010000000     0.508458   
C37      C      0.398320000000     0.402630000000     0.004050000000     0.507386   
C38      C      0.400380000000     0.598170000000     0.980600000000     0.503885   
C39      C      0.394880000000     0.501130000000     0.091920000000     0.506578   
C40      C      0.403370000000     0.496380000000     0.895940000000     0.501324   
C41      C      0.596890000000     0.597020000000     0.001980000000     0.498083   
C42      C      0.595300000000     0.399360000000     0.999160000000     0.506997   
C43      C      0.496550000000     0.603400000000     0.090830000000     0.490338   
C44      C      0.498350000000     0.592340000000     0.893760000000     0.506274   
C45      C      0.504400000000     0.395750000000     0.905410000000     0.514712   
C46      C      0.485650000000     0.405760000000     0.100580000000     0.513884   
C47      C      0.592270000000     0.503560000000     0.099540000000     0.498003   
C48      C      0.599790000000     0.487120000000     0.902990000000     0.513273   
C49      C      0.485520000000     0.361690000000     0.206120000000    -0.0379799  
C50      C      0.486050000000     0.158040000000     0.304440000000    -0.0364357  
C51      C      0.495040000000     0.177290000000     0.391390000000     0.00910443 
C52      C      0.502310000000     0.124820000000     0.333370000000     0.00916607 
C53      C      0.450980000000     0.240500000000     0.275930000000    -0.0565807  
C54      C      0.518760000000     0.281200000000     0.242040000000    -0.0566229  
C55      C      0.490920000000     0.230610000000     0.289370000000     0.0605676  
C56      C      0.479250000000     0.207680000000     0.359190000000    -0.0364608  
C57      C      0.478860000000     0.290780000000     0.228300000000     0.0610376  
C58      C      0.489370000000     0.306350000000     0.156550000000    -0.0848011  
C59      C      0.445160000000     0.270370000000     0.245640000000    -0.0536306  
C60      C      0.473430000000     0.333740000000     0.121730000000     0.183679   
C61      C      0.470470000000     0.392230000000     0.173640000000     0.0159151  
C62      C      0.524590000000     0.251360000000     0.272350000000    -0.0545288  
C63      C      0.514700000000     0.862740000000     0.289140000000    -0.0381881  
C64      C      0.506850000000     0.658470000000     0.191030000000    -0.0355566  
C65      C      0.492040000000     0.677960000000     0.104960000000     0.00662968 
C66      C      0.488800000000     0.625370000000     0.162890000000     0.00691961 
C67      C      0.471000000000     0.752020000000     0.226190000000    -0.0542993  
C68      C      0.552130000000     0.770970000000     0.247260000000    -0.0533456  
C69      C      0.503320000000     0.731140000000     0.206820000000     0.0604529  
C70      C      0.509860000000     0.708410000000     0.136130000000    -0.0355283  
C71      C      0.519800000000     0.791600000000     0.266880000000     0.0606513  
C72      C      0.514520000000     0.807590000000     0.339200000000    -0.0834312  
C73      C      0.479020000000     0.781970000000     0.255970000000    -0.0563997  
C74      C      0.532070000000     0.835620000000     0.372820000000     0.181317   
C75      C      0.531500000000     0.893570000000     0.320590000000     0.0166542  
C76      C      0.544110000000     0.740990000000     0.217490000000    -0.0564899  
C77      C      0.497090000000     0.840030000000     0.690110000000    -0.0383002  
C78      C      0.489780000000     0.637490000000     0.788440000000    -0.0365494  
C79      C      0.505080000000     0.664580000000     0.872450000000     0.00861508 
C80      C      0.504860000000     0.606050000000     0.819850000000     0.0101491  
C81      C      0.460170000000     0.719130000000     0.753120000000    -0.0567976  
C82      C      0.529340000000     0.756380000000     0.718160000000    -0.0565624  
C83      C      0.499780000000     0.707830000000     0.766380000000     0.061197   
C84      C      0.489820000000     0.692660000000     0.838170000000    -0.0359597  
C85      C      0.489730000000     0.767870000000     0.705040000000     0.0612448  
C86      C      0.502420000000     0.790070000000     0.635270000000    -0.0835426  
C87      C      0.455330000000     0.748910000000     0.722630000000    -0.0535649  
C88      C      0.488360000000     0.821260000000     0.602870000000     0.181757   
C89      C      0.482810000000     0.873740000000     0.660830000000     0.0168414  
C90      C      0.534170000000     0.726530000000     0.748550000000    -0.0547014  
C91      C      0.501810000000     0.341480000000     0.804780000000    -0.0379452  
C92      C      0.499680000000     0.138130000000     0.706210000000    -0.0368674  
C93      C      0.484550000000     0.165300000000     0.622260000000     0.010918   
C94      C      0.483670000000     0.107060000000     0.674800000000     0.00981803 
C95      C      0.458850000000     0.229440000000     0.745920000000    -0.0548389  
C96      C      0.538690000000     0.248360000000     0.771460000000    -0.0528869  
C97      C      0.492280000000     0.208960000000     0.728150000000     0.0614001  
C98      C      0.500760000000     0.193210000000     0.656290000000    -0.036683   
C99      C      0.505270000000     0.268970000000     0.789100000000     0.0612646  
C100     C      0.493870000000     0.291440000000     0.859140000000    -0.0844175  
C101     C      0.465140000000     0.259300000000     0.776110000000    -0.0564514  
C102     C      0.510470000000     0.321210000000     0.891710000000     0.182814   
C103     C      0.518440000000     0.373960000000     0.834320000000     0.0148215  
C104     C      0.532400000000     0.218650000000     0.741150000000    -0.0568395  
C105     C      0.784940000000     0.366270000000     0.501160000000    -0.037584   
C106     C      0.687620000000     0.161860000000     0.508560000000    -0.0364235  
C107     C      0.601270000000     0.178770000000     0.525320000000     0.00777103 
C108     C      0.660240000000     0.127820000000     0.526010000000     0.00787533 
C109     C      0.710640000000     0.245550000000     0.471770000000    -0.0563764  
C110     C      0.751860000000     0.285170000000     0.535910000000    -0.0564143  
C111     C      0.701790000000     0.234710000000     0.512660000000     0.0605772  
C112     C      0.631220000000     0.210760000000     0.508040000000    -0.0365394  
C113     C      0.760970000000     0.295720000000     0.495000000000     0.0609405  
C114     C      0.833820000000     0.310210000000     0.496790000000    -0.0842097  
C115     C      0.739950000000     0.275820000000     0.463170000000    -0.0535949  
C116     C      0.866950000000     0.337890000000     0.477830000000     0.182714   
C117     C      0.816000000000     0.397000000000     0.483410000000     0.0152061  
C118     C      0.722460000000     0.254960000000     0.544510000000    -0.0543023  
C119     C      0.809410000000     0.663450000000     0.503930000000    -0.0379601  
C120     C      0.711860000000     0.867060000000     0.497860000000    -0.036324   
C121     C      0.629820000000     0.838850000000     0.475470000000     0.00601266 
C122     C      0.680690000000     0.897800000000     0.480510000000     0.00934809 
C123     C      0.745190000000     0.786060000000     0.532010000000    -0.0567446  
C124     C      0.786270000000     0.747050000000     0.467420000000    -0.0561906  
C125     C      0.735760000000     0.796670000000     0.491200000000     0.0612146  
C126     C      0.662930000000     0.810870000000     0.493490000000    -0.0348082  
C127     C      0.795460000000     0.736160000000     0.508230000000     0.061042   
C128     C      0.865890000000     0.712180000000     0.502680000000    -0.083142   
C129     C      0.774870000000     0.756090000000     0.540300000000    -0.0534406  
C130     C      0.896230000000     0.680190000000     0.519650000000     0.181477   
C131     C      0.836830000000     0.629400000000     0.521070000000     0.016321   
C132     C      0.756700000000     0.777110000000     0.459140000000    -0.0542884  
C133     C      0.130690000000     0.286380000000     0.498960000000    -0.038249   
C134     C      0.335080000000     0.190170000000     0.487010000000    -0.036474   
C135     C      0.318800000000     0.102510000000     0.497870000000     0.00798559 
C136     C      0.369980000000     0.162330000000     0.501660000000     0.00989671 
C137     C      0.249970000000     0.216250000000     0.456840000000    -0.0565565  
C138     C      0.212970000000     0.250080000000     0.526610000000    -0.0565093  
C139     C      0.262600000000     0.203330000000     0.496090000000     0.0608006  
C140     C      0.286810000000     0.133850000000     0.483480000000    -0.0357984  
C141     C      0.200730000000     0.263430000000     0.487370000000     0.0611366  
C142     C      0.186410000000     0.335540000000     0.497890000000    -0.0837812  
C143     C      0.219270000000     0.246060000000     0.452670000000    -0.0534016  
C144     C      0.158480000000     0.370570000000     0.483410000000     0.182407   
C145     C      0.099290000000     0.318770000000     0.485350000000     0.0164022  
C146     C      0.243630000000     0.220250000000     0.530780000000    -0.0543882  
C147     C      0.162230000000     0.688860000000     0.485360000000    -0.0381957  
C148     C      0.365620000000     0.786810000000     0.492770000000    -0.0366405  
C149     C      0.337450000000     0.870750000000     0.477920000000     0.00845962 
C150     C      0.396620000000     0.819230000000     0.478430000000     0.00895965 
C151     C      0.284180000000     0.750080000000     0.522000000000    -0.0566072  
C152     C      0.246500000000     0.715410000000     0.453010000000    -0.0565115  
C153     C      0.295520000000     0.763490000000     0.482520000000     0.0609798  
C154     C      0.309640000000     0.835800000000     0.492480000000    -0.0358386  
C155     C      0.234810000000     0.702370000000     0.492510000000     0.0612176  
C156     C      0.210540000000     0.632730000000     0.480090000000    -0.0832131  
C157     C      0.254100000000     0.719750000000     0.526800000000    -0.0528952  
C158     C      0.179070000000     0.600970000000     0.495370000000     0.181982   
C159     C      0.127910000000     0.660740000000     0.500730000000     0.0164542  
C160     C      0.276650000000     0.745700000000     0.448210000000    -0.0545223  
C161     C      0.791510000000     0.504000000000     0.355220000000    -0.0387234  
C162     C      0.693690000000     0.509840000000     0.153090000000    -0.0360562  
C163     C      0.606900000000     0.499710000000     0.173400000000     0.00843731 
C164     C      0.664370000000     0.494590000000     0.119930000000     0.00873775 
C165     C      0.723450000000     0.541780000000     0.235640000000    -0.0564927  
C166     C      0.757070000000     0.472490000000     0.273990000000    -0.0569427  
C167     C      0.709680000000     0.502180000000     0.224810000000     0.0612699  
C168     C      0.639530000000     0.514600000000     0.203620000000    -0.0359507  
C169     C      0.771150000000     0.512070000000     0.284520000000     0.0622316  
C170     C      0.842370000000     0.499660000000     0.301270000000    -0.0852068  
C171     C      0.753990000000     0.546540000000     0.265300000000    -0.0537429  
C172     C      0.877010000000     0.514440000000     0.329410000000     0.185241   
C173     C      0.823160000000     0.518690000000     0.386510000000     0.0182442  
C174     C      0.726560000000     0.467730000000     0.244310000000    -0.0538688  
C175     C      0.193460000000     0.498480000000     0.342810000000    -0.0378307  
C176     C      0.290440000000     0.491240000000     0.139310000000    -0.0366381  
C177     C      0.374750000000     0.509270000000     0.164140000000     0.00930858 
C178     C      0.320900000000     0.506490000000     0.106990000000     0.010058   
C179     C      0.257420000000     0.461940000000     0.221710000000    -0.0567243  
C180     C      0.221830000000     0.530740000000     0.259160000000    -0.0565443  
C181     C      0.269650000000     0.501760000000     0.209840000000     0.0612777  
C182     C      0.341470000000     0.493520000000     0.193150000000    -0.0362749  
C183     C      0.209510000000     0.490930000000     0.270960000000     0.0613573  
C184     C      0.139140000000     0.502330000000     0.292280000000    -0.083529   
C185     C      0.227490000000     0.456720000000     0.251980000000    -0.0531392  
C186     C      0.106550000000     0.487400000000     0.322790000000     0.182409   
C187     C      0.164010000000     0.483490000000     0.376110000000     0.0161193  
C188     C      0.251620000000     0.535970000000     0.228770000000    -0.0546383  
C189     C      0.203240000000     0.472520000000     0.640610000000    -0.0380579  
C190     C      0.301910000000     0.499580000000     0.841500000000    -0.0367022  
C191     C      0.388420000000     0.484870000000     0.822840000000     0.00919285 
C192     C      0.330910000000     0.487670000000     0.876380000000     0.00938763 
C193     C      0.272930000000     0.522330000000     0.755380000000    -0.0561289  
C194     C      0.237030000000     0.450070000000     0.725410000000    -0.0570142  
C195     C      0.285460000000     0.483940000000     0.771020000000     0.060416   
C196     C      0.356090000000     0.496820000000     0.790930000000    -0.0366615  
C197     C      0.224290000000     0.488490000000     0.710030000000     0.0619076  
C198     C      0.152500000000     0.476840000000     0.694260000000    -0.0833991  
C199     C      0.242580000000     0.524440000000     0.725140000000    -0.0534589  
C200     C      0.118470000000     0.490790000000     0.664890000000     0.181979   
C201     C      0.172520000000     0.485330000000     0.607470000000     0.016632   
C202     C      0.267390000000     0.447960000000     0.755670000000    -0.054346   
C203     C      0.704010000000     0.493570000000     0.856590000000    -0.0375576  
C204     C      0.801310000000     0.503390000000     0.652530000000    -0.0353755  
C205     C      0.887350000000     0.517650000000     0.673040000000     0.00676413 
C206     C      0.830300000000     0.521220000000     0.620070000000     0.0068204  
C207     C      0.774560000000     0.464980000000     0.734440000000    -0.0565272  
C208     C      0.735270000000     0.529440000000     0.775690000000    -0.0563187  
C209     C      0.784710000000     0.506010000000     0.724830000000     0.0607025  
C210     C      0.855810000000     0.500010000000     0.703140000000    -0.0353513  
C211     C      0.725200000000     0.488410000000     0.785380000000     0.0608433  
C212     C      0.652890000000     0.491750000000     0.802530000000    -0.0840892  
C213     C      0.745100000000     0.456410000000     0.764510000000    -0.0533752  
C214     C      0.620270000000     0.473320000000     0.831160000000     0.182885   
C215     C      0.673630000000     0.476040000000     0.888000000000     0.0153882  
C216     C      0.764840000000     0.538010000000     0.745730000000    -0.0543548  
C217     C      0.798680000000     0.849450000000     0.003750000000    -0.0326908  
C218     C      0.700220000000     0.646310000000     0.002000000000    -0.0339511  
C219     C      0.614400000000     0.670090000000     0.012210000000     0.012735   
C220     C      0.669170000000     0.614310000000     0.016740000000     0.00799553 
C221     C      0.732670000000     0.727930000000     0.969130000000    -0.0594208  
C222     C      0.766970000000     0.767560000000     0.037200000000    -0.0538843  
C223     C      0.719120000000     0.717800000000     0.008880000000     0.0639125  
C224     C      0.648060000000     0.699390000000     0.997660000000    -0.0412694  
C225     C      0.780460000000     0.777710000000     0.997440000000     0.0593354  
C226     C      0.851350000000     0.797160000000     0.008660000000    -0.0809213  
C227     C      0.763120000000     0.757680000000     0.963610000000    -0.0520849  
C228     C      0.884830000000     0.826160000000     0.992620000000     0.179321   
C229     C      0.829150000000     0.881570000000     0.988110000000     0.0127255  
C230     C      0.736510000000     0.737790000000     0.042730000000    -0.055665   
C231     C      0.797780000000     0.146530000000     0.007500000000    -0.0360345  
C232     C      0.698140000000     0.349210000000     0.006810000000    -0.0298514  
C233     C      0.613090000000     0.326060000000     0.990490000000     0.00202776 
C234     C      0.668390000000     0.381520000000     0.990090000000     0.00370247 
C235     C      0.728390000000     0.266800000000     0.040620000000    -0.0578712  
C236     C      0.766970000000     0.228660000000     0.974010000000    -0.0572291  
C237     C      0.717130000000     0.277600000000     0.000330000000     0.0652688  
C238     C      0.645470000000     0.296570000000     0.007510000000    -0.0292187  
C239     C      0.778320000000     0.217900000000     0.014290000000     0.0624125  
C240     C      0.850040000000     0.199790000000     0.006600000000    -0.0821288  
C241     C      0.758770000000     0.237170000000     0.047400000000    -0.0531064  
C242     C      0.883250000000     0.170050000000     0.022030000000     0.182797   
C243     C      0.828390000000     0.114360000000     0.022840000000     0.0159744  
C244     C      0.736620000000     0.258290000000     0.967240000000    -0.0568201  
C245     C      0.201960000000     0.852650000000     0.997380000000    -0.043264   
C246     C      0.298920000000     0.648660000000     0.983570000000    -0.0385474  
C247     C      0.383730000000     0.670980000000     0.965420000000     0.00809222 
C248     C      0.328100000000     0.616610000000     0.965280000000     0.00955279 
C249     C      0.271930000000     0.730160000000     0.022300000000    -0.0535876  
C250     C      0.230220000000     0.771440000000     0.959560000000    -0.0593648  
C251     C      0.280710000000     0.720750000000     0.981050000000     0.0579551  
C252     C      0.352420000000     0.700910000000     0.983720000000    -0.0379757  
C253     C      0.221470000000     0.780900000000     0.000810000000     0.0634862  
C254     C      0.149500000000     0.799550000000     0.998830000000    -0.088249   
C255     C      0.242550000000     0.760020000000     0.031950000000    -0.0550962  
C256     C      0.117670000000     0.828980000000     0.017440000000     0.184069   
C257     C      0.172590000000     0.884490000000     0.015690000000     0.019994   
C258     C      0.259630000000     0.741630000000     0.949910000000    -0.0530478  
C259     C      0.198460000000     0.149020000000     0.992240000000    -0.0400754  
C260     C      0.295140000000     0.353700000000     0.996910000000    -0.0418363  
C261     C      0.379420000000     0.330110000000     0.016000000000     0.00963633 
C262     C      0.324870000000     0.386070000000     0.013660000000     0.0132165  
C263     C      0.265210000000     0.271670000000     0.962980000000    -0.0595203  
C264     C      0.227160000000     0.231290000000     0.028590000000    -0.0534186  
C265     C      0.275740000000     0.282120000000     0.003550000000     0.0640583  
C266     C      0.347440000000     0.300590000000     0.998520000000    -0.0406344  
C267     C      0.216410000000     0.221080000000     0.988030000000     0.0589704  
C268     C      0.145170000000     0.201010000000     0.995250000000    -0.0867286  
C269     C      0.235680000000     0.241430000000     0.955430000000    -0.0520685  
C270     C      0.112800000000     0.171770000000     0.977480000000     0.183364   
C271     C      0.168740000000     0.117000000000     0.974880000000     0.0155741  
C272     C      0.256580000000     0.261660000000     0.036150000000    -0.0560554  
C273     C      0.694200000000     0.009530000000     0.653670000000    -0.0363054  
C274     C      0.793050000000     0.999770000000     0.856210000000    -0.0372338  
C275     C      0.877180000000     0.983080000000     0.830250000000     0.00308017 
C276     C      0.823880000000     0.982450000000     0.887210000000     0.00741485 
C277     C      0.760060000000     0.035740000000     0.776270000000    -0.0535494  
C278     C      0.722600000000     0.970480000000     0.734580000000    -0.0593698  
C279     C      0.771790000000     0.994960000000     0.785120000000     0.0582687  
C280     C      0.844010000000     0.000680000000     0.802010000000    -0.0293646  
C281     C      0.710740000000     0.011240000000     0.725830000000     0.0637409  
C282     C      0.639910000000     0.002400000000     0.704170000000    -0.0808131  
C283     C      0.729720000000     0.043650000000     0.746920000000    -0.0550395  
C284     C      0.607300000000     0.018930000000     0.674320000000     0.180681   
C285     C      0.664320000000     0.026470000000     0.621640000000     0.0173177  
C286     C      0.752800000000     0.962560000000     0.764050000000    -0.0527827  
C287     C      0.142190000000     0.992530000000     0.792030000000    -0.0424658  
C288     C      0.344880000000     0.984970000000     0.692280000000    -0.0376642  
C289     C      0.324230000000     0.969010000000     0.606760000000     0.00709891 
C290     C      0.377640000000     0.967810000000     0.663280000000     0.00748161 
C291     C      0.262530000000     0.021530000000     0.719510000000    -0.0547525  
C292     C      0.223430000000     0.956690000000     0.760370000000    -0.0557457  
C293     C      0.272780000000     0.980600000000     0.709600000000     0.0589105  
C294     C      0.293580000000     0.985920000000     0.638250000000    -0.0376846  
C295     C      0.213320000000     0.997630000000     0.770360000000     0.0577593  
C296     C      0.196470000000     0.993750000000     0.842740000000    -0.0892318  
C297     C      0.233040000000     0.029820000000     0.749610000000    -0.0509522  
C298     C      0.168130000000     0.012460000000     0.875540000000     0.186751   
C299     C      0.111100000000     0.010990000000     0.822100000000     0.0176581  
C300     C      0.252910000000     0.948390000000     0.730230000000    -0.054359   
C301     C      0.205760000000     0.996770000000     0.138890000000    -0.0449253  
C302     C      0.303400000000     0.006920000000     0.341260000000    -0.0300519  
C303     C      0.390570000000     0.000010000000     0.321150000000     0.0119634  
C304     C      0.333100000000     0.992190000000     0.374370000000     0.00291202 
C305     C      0.273420000000     0.038590000000     0.258050000000    -0.0534895  
C306     C      0.240630000000     0.968350000000     0.220700000000    -0.0599803  
C307     C      0.287760000000     0.999340000000     0.269420000000     0.0580226  
C308     C      0.357480000000     0.014060000000     0.290990000000    -0.0356572  
C309     C      0.226320000000     0.007610000000     0.209290000000     0.0644612  
C310     C      0.154930000000     0.995550000000     0.192940000000    -0.090105   
C311     C      0.242980000000     0.042550000000     0.228130000000    -0.0554353  
C312     C      0.120470000000     0.009770000000     0.164250000000     0.188151   
C313     C      0.174300000000     0.010500000000     0.106930000000     0.0231994  
C314     C      0.271190000000     0.964410000000     0.250500000000    -0.0526912  
C315     C      0.802950000000     0.013740000000     0.153450000000    -0.0344707  
C316     C      0.705910000000     0.007450000000     0.357200000000    -0.0340952  
C317     C      0.621070000000     0.021930000000     0.332100000000     0.00892548 
C318     C      0.674650000000     0.022010000000     0.389150000000     0.00840415 
C319     C      0.739380000000     0.977110000000     0.275060000000    -0.0578571  
C320     C      0.774230000000     0.045920000000     0.236920000000    -0.0574719  
C321     C      0.726570000000     0.016890000000     0.286460000000     0.062715   
C322     C      0.654890000000     0.007130000000     0.303160000000    -0.0341556  
C323     C      0.786890000000     0.006130000000     0.225400000000     0.0649243  
C324     C      0.857290000000     0.017250000000     0.203750000000    -0.0826039  
C325     C      0.769340000000     0.971920000000     0.244800000000    -0.0554032  
C326     C      0.889750000000     0.001380000000     0.173530000000     0.184519   
C327     C      0.832000000000     0.998090000000     0.120070000000     0.0115307  
C328     C      0.744310000000     0.051110000000     0.267240000000    -0.0542377  
C329     C      0.999850000000     0.197510000000     0.844760000000    -0.0422179  
C330     C      0.000310000000     0.293410000000     0.640900000000    -0.0313714  
C331     C      0.989830000000     0.379060000000     0.665680000000     0.00416913 
C332     C      0.985180000000     0.324560000000     0.609280000000     0.00732444 
C333     C      0.033000000000     0.259900000000     0.721620000000    -0.053295   
C334     C      0.964790000000     0.228150000000     0.763240000000    -0.0601515  
C335     C      0.993280000000     0.274160000000     0.712080000000     0.0584888  
C336     C      0.005000000000     0.345100000000     0.694120000000    -0.0302588  
C337     C      0.004510000000     0.213900000000     0.772740000000     0.0654788  
C338     C      0.991560000000     0.143850000000     0.793980000000    -0.0875598  
C339     C      0.038420000000     0.229920000000     0.751720000000    -0.0554561  
C340     C      0.007540000000     0.110550000000     0.823090000000     0.186777   
C341     C      0.015840000000     0.167230000000     0.876760000000     0.0178292  
C342     C      0.959360000000     0.258080000000     0.733050000000    -0.0528513  
C343     C      0.000170000000     0.794500000000     0.853680000000    -0.0317082  
C344     C      0.002260000000     0.696570000000     0.650660000000    -0.0338835  
C345     C      0.017300000000     0.610670000000     0.671720000000     0.00675152 
C346     C      0.018990000000     0.667410000000     0.617920000000     0.0085911  
C347     C      0.967520000000     0.724690000000     0.733130000000    -0.0601281  
C348     C      0.033860000000     0.763150000000     0.772050000000    -0.0531013  
C349     C      0.008020000000     0.713790000000     0.722440000000     0.0649489  
C350     C      0.000690000000     0.642580000000     0.701900000000    -0.032758   
C351     C      0.993360000000     0.774100000000     0.782670000000     0.0585302  
C352     C      0.999560000000     0.846150000000     0.800140000000    -0.0853843  
C353     C      0.960400000000     0.754610000000     0.763040000000    -0.0510621  
C354     C      0.982480000000     0.879170000000     0.829090000000     0.181868   
C355     C      0.983380000000     0.824800000000     0.885370000000     0.0108511  
C356     C      0.040980000000     0.733190000000     0.742170000000    -0.0564189  
C357     C      0.022680000000     0.854190000000     0.201550000000    -0.0387428  
C358     C      0.013020000000     0.650990000000     0.299900000000    -0.0350174  
C359     C      0.030310000000     0.671150000000     0.385280000000     0.00819994 
C360     C      0.027030000000     0.617080000000     0.329220000000     0.0102094  
C361     C      0.057700000000     0.739950000000     0.262530000000    -0.0544277  
C362     C      0.978390000000     0.765960000000     0.241980000000    -0.0549069  
C363     C      0.023750000000     0.722350000000     0.282300000000     0.0627284  
C364     C      0.016180000000     0.702730000000     0.353510000000    -0.0340946  
C365     C      0.012300000000     0.783400000000     0.222070000000     0.0637566  
C366     C      0.019300000000     0.800750000000     0.150230000000    -0.08444    
C367     C      0.052160000000     0.770260000000     0.232620000000    -0.0571451  
C368     C      0.002430000000     0.830020000000     0.117450000000     0.185154   
C369     C      0.006640000000     0.886920000000     0.171900000000     0.0200128  
C370     C      0.983910000000     0.735690000000     0.271870000000    -0.0579225  
C371     C      0.984350000000     0.303200000000     0.344380000000    -0.0405004  
C372     C      0.986860000000     0.203900000000     0.141410000000    -0.0407193  
C373     C      0.005800000000     0.119670000000     0.166040000000     0.013476   
C374     C      0.004090000000     0.173930000000     0.109490000000     0.0153153  
C375     C      0.953390000000     0.235630000000     0.223210000000    -0.0558596  
C376     C      0.019540000000     0.274850000000     0.261720000000    -0.0547683  
C377     C      0.993910000000     0.224800000000     0.212460000000     0.0577824  
C378     C      0.988430000000     0.152480000000     0.194960000000    -0.0394846  
C379     C      0.979030000000     0.285720000000     0.272470000000     0.0593449  
C380     C      0.986410000000     0.357180000000     0.293180000000    -0.0864047  
C381     C      0.946170000000     0.265860000000     0.252920000000    -0.0529721  
C382     C      0.970030000000     0.389480000000     0.323550000000     0.183087   
C383     C      0.967680000000     0.332610000000     0.377030000000     0.0160224  
C384     C      0.026760000000     0.244700000000     0.231950000000    -0.0517481  
Eu1      Eu     0.001350000000     0.000320000000     0.070100000000     3.54617    
Eu2      Eu     0.000260000000     0.925920000000     0.999260000000     3.05793    
Eu3      Eu     0.998150000000     0.072030000000     0.995310000000     3.47682    
Eu4      Eu     0.926220000000     0.998750000000     0.000060000000     3.06355    
Eu5      Eu     0.072320000000     0.999150000000     0.994450000000     3.48491    
Eu6      Eu     0.997180000000     0.997560000000     0.924450000000     3.05069    
Eu7      Eu     0.994670000000     0.502050000000     0.425100000000     3.49461    
Eu8      Eu     0.003680000000     0.572400000000     0.499250000000     3.06987    
Eu9      Eu     0.990630000000     0.426680000000     0.496220000000     3.48265    
Eu10     Eu     0.924280000000     0.505480000000     0.499790000000     3.0523     
Eu11     Eu     0.069980000000     0.493700000000     0.495830000000     3.52823    
Eu12     Eu     0.999550000000     0.497160000000     0.570490000000     3.04061    
Eu13     Eu     0.501780000000     0.003020000000     0.425130000000     3.49543    
Eu14     Eu     0.426410000000     0.993960000000     0.494350000000     3.03196    
Eu15     Eu     0.571980000000     0.004500000000     0.501490000000     3.49923    
Eu16     Eu     0.505330000000     0.926460000000     0.493610000000     3.05789    
Eu17     Eu     0.492940000000     0.072040000000     0.502020000000     3.5147     
Eu18     Eu     0.496590000000     0.995450000000     0.570610000000     3.05374    
Eu19     Eu     0.424920000000     0.500690000000     0.995250000000     3.4806     
Eu20     Eu     0.498430000000     0.572550000000     0.993720000000     3.02795    
Eu21     Eu     0.497400000000     0.426490000000     0.002110000000     3.51388    
Eu22     Eu     0.494640000000     0.503170000000     0.070550000000     3.06006    
Eu23     Eu     0.501120000000     0.495920000000     0.925100000000     3.5203     
Eu24     Eu     0.570860000000     0.498470000000     0.000350000000     3.06997    
H1       H      0.964240000000     0.962510000000     0.067210000000    -0.191335   
H2       H      0.060480000000     0.061010000000     0.053240000000     0.415388   
H3       H      0.959170000000     0.066380000000     0.959300000000    -0.172213   
H4       H      0.066730000000     0.960460000000     0.958230000000    -0.177064   
H5       H      0.961060000000     0.542870000000     0.431850000000    -0.176652   
H6       H      0.049550000000     0.436340000000     0.434630000000     0.420244   
H7       H      0.954590000000     0.433720000000     0.534520000000    -0.181764   
H8       H      0.069240000000     0.530370000000     0.534040000000    -0.186064   
H9       H      0.467400000000     0.962370000000     0.426190000000    -0.178351   
H10      H      0.556580000000     0.067050000000     0.444530000000     0.412146   
H11      H      0.568820000000     0.964560000000     0.536710000000    -0.17905    
H12      H      0.454680000000     0.062070000000     0.537350000000    -0.187107   
H13      H      0.428550000000     0.540410000000     0.030490000000    -0.174677   
H14      H      0.439810000000     0.436660000000     0.939390000000     0.410819   
H15      H      0.533610000000     0.432650000000     0.040800000000    -0.172592   
H16      H      0.538810000000     0.533120000000     0.929560000000    -0.188463   
H17      H      0.555470000000     0.243970000000     0.282310000000     0.0431634  
H18      H      0.472770000000     0.371110000000     0.236380000000     0.0355102  
H19      H      0.480550000000     0.273860000000     0.150120000000     0.0490545  
H20      H      0.527440000000     0.185150000000     0.398930000000     0.0257477  
H21      H      0.436650000000     0.395940000000     0.176910000000     0.0404119  
H22      H      0.499090000000     0.152380000000     0.273370000000     0.0342938  
H23      H      0.487240000000     0.239400000000     0.369340000000     0.0341242  
H24      H      0.488670000000     0.094870000000     0.324000000000     0.0349992  
H25      H      0.490600000000     0.325150000000     0.093380000000    -0.00224186 
H26      H      0.545330000000     0.296360000000     0.228980000000     0.039859   
H27      H      0.484740000000     0.422630000000     0.180120000000     0.0336665  
H28      H      0.424460000000     0.224820000000     0.288460000000     0.0402068  
H29      H      0.519670000000     0.363200000000     0.208000000000     0.036653   
H30      H      0.476620000000     0.181490000000     0.419820000000     0.0345453  
H31      H      0.451960000000     0.155470000000     0.302280000000     0.0375223  
H32      H      0.445130000000     0.205420000000     0.357310000000     0.0372876  
H33      H      0.414320000000     0.277310000000     0.235220000000     0.047001   
H34      H      0.523580000000     0.307870000000     0.157350000000     0.0461419  
H35      H      0.536170000000     0.122300000000     0.329350000000     0.0259218  
H36      H      0.428850000000     0.299800000000     0.101150000000     0.135164   
H37      H      0.569650000000     0.725240000000     0.203150000000     0.0404974  
H38      H      0.525560000000     0.872100000000     0.258140000000     0.0355731  
H39      H      0.524390000000     0.775350000000     0.345340000000     0.0493162  
H40      H      0.458980000000     0.685250000000     0.100200000000     0.0333034  
H41      H      0.565160000000     0.896940000000     0.315690000000     0.0409515  
H42      H      0.495760000000     0.652610000000     0.222800000000     0.0344725  
H43      H      0.500990000000     0.740100000000     0.126650000000     0.0345806  
H44      H      0.502540000000     0.595280000000     0.171610000000     0.035788   
H45      H      0.516970000000     0.826730000000     0.402220000000    -0.00110654 
H46      H      0.583650000000     0.777860000000     0.255430000000     0.0470816  
H47      H      0.517160000000     0.924010000000     0.314530000000     0.0330155  
H48      H      0.439470000000     0.744720000000     0.218420000000     0.0437271  
H49      H      0.480500000000     0.864100000000     0.289310000000     0.0367687  
H50      H      0.507990000000     0.682780000000     0.075180000000     0.0359645  
H51      H      0.541000000000     0.655890000000     0.191060000000     0.0373636  
H52      H      0.544030000000     0.706360000000     0.135610000000     0.0371971  
H53      H      0.453450000000     0.797220000000     0.270790000000     0.0399803  
H54      H      0.480310000000     0.808440000000     0.340600000000     0.0463895  
H55      H      0.455160000000     0.623270000000     0.168570000000     0.0329297  
H56      H      0.578770000000     0.803550000000     0.391770000000     0.135469   
H57      H      0.564790000000     0.718220000000     0.758630000000     0.0436491  
H58      H      0.483630000000     0.846290000000     0.720890000000     0.0353601  
H59      H      0.493400000000     0.758600000000     0.625160000000     0.0500037  
H60      H      0.538370000000     0.670480000000     0.877530000000     0.0325864  
H61      H      0.448880000000     0.877010000000     0.663460000000     0.0397926  
H62      H      0.500680000000     0.627810000000     0.757550000000     0.034441   
H63      H      0.500650000000     0.724510000000     0.844650000000     0.0343123  
H64      H      0.488240000000     0.576640000000     0.814390000000     0.0356446  
H65      H      0.507540000000     0.816150000000     0.574940000000    -0.00222878 
H66      H      0.556400000000     0.770790000000     0.705270000000     0.0395881  
H67      H      0.496790000000     0.903250000000     0.670980000000     0.0332199  
H68      H      0.433110000000     0.705270000000     0.766610000000     0.0404223  
H69      H      0.531200000000     0.841220000000     0.692920000000     0.0366497  
H70      H      0.488670000000     0.673130000000     0.901140000000     0.0352788  
H71      H      0.455530000000     0.637590000000     0.788110000000     0.037345   
H72      H      0.455570000000     0.692920000000     0.838070000000     0.0372     
H73      H      0.424710000000     0.757640000000     0.712960000000     0.0469567  
H74      H      0.536590000000     0.790920000000     0.637440000000     0.0454752  
H75      H      0.538090000000     0.600120000000     0.814460000000     0.0310152  
H76      H      0.445750000000     0.791740000000     0.573090000000     0.13595    
H77      H      0.558780000000     0.203540000000     0.727650000000     0.0427273  
H78      H      0.515330000000     0.347230000000     0.773940000000     0.0353144  
H79      H      0.500750000000     0.259290000000     0.868780000000     0.0494992  
H80      H      0.451200000000     0.171450000000     0.617940000000     0.0309438  
H81      H      0.552450000000     0.374910000000     0.831330000000     0.0496082  
H82      H      0.488550000000     0.128790000000     0.737120000000     0.0346871  
H83      H      0.490580000000     0.225260000000     0.649750000000     0.0346515  
H84      H      0.499070000000     0.077060000000     0.680590000000     0.0377928  
H85      H      0.491620000000     0.316900000000     0.919980000000    -0.00649987 
H86      H      0.569720000000     0.255690000000     0.781020000000     0.0485083  
H87      H      0.506400000000     0.404450000000     0.824600000000     0.0327407  
H88      H      0.427850000000     0.222490000000     0.736000000000     0.0437176  
H89      H      0.467810000000     0.344730000000     0.802300000000     0.0339915  
H90      H      0.500430000000     0.173840000000     0.593280000000     0.0366516  
H91      H      0.533910000000     0.137210000000     0.706470000000     0.0417623  
H92      H      0.535000000000     0.192680000000     0.656070000000     0.0403715  
H93      H      0.438840000000     0.275010000000     0.789040000000     0.0389293  
H94      H      0.459830000000     0.294690000000     0.857300000000     0.0426561  
H95      H      0.450180000000     0.102510000000     0.679890000000     0.0320778  
H96      H      0.551590000000     0.287500000000     0.918840000000     0.134321   
H97      H      0.716160000000     0.246820000000     0.576100000000     0.0443429  
H98      H      0.753460000000     0.376530000000     0.492550000000     0.0356912  
H99      H      0.838650000000     0.278070000000     0.485920000000     0.0492269  
H100     H      0.598110000000     0.183850000000     0.558900000000     0.0349596  
H101     H      0.808840000000     0.401870000000     0.450410000000     0.0420776  
H102     H      0.719670000000     0.156400000000     0.519240000000     0.0346703  
H103     H      0.621160000000     0.241800000000     0.518420000000     0.034513   
H104     H      0.670220000000     0.098060000000     0.512480000000     0.033661   
H105     H      0.897080000000     0.328110000000     0.490930000000    -0.00139679 
H106     H      0.767900000000     0.299770000000     0.561080000000     0.0400075  
H107     H      0.811750000000     0.426970000000     0.499280000000     0.0336639  
H108     H      0.695360000000     0.230230000000     0.446550000000     0.0395804  
H109     H      0.787240000000     0.366560000000     0.535230000000     0.0365874  
H110     H      0.570630000000     0.184090000000     0.511200000000     0.0328536  
H111     H      0.687350000000     0.160050000000     0.474450000000     0.0350778  
H112     H      0.629820000000     0.209990000000     0.473930000000     0.0347113  
H113     H      0.746850000000     0.283370000000     0.431560000000     0.047375   
H114     H      0.837280000000     0.310270000000     0.530780000000     0.0461917  
H115     H      0.665300000000     0.125960000000     0.559690000000     0.0354196  
H116     H      0.881780000000     0.306000000000     0.429660000000     0.136104   
H117     H      0.749560000000     0.784760000000     0.427610000000     0.0452884  
H118     H      0.777460000000     0.658060000000     0.514950000000     0.0359057  
H119     H      0.876000000000     0.743420000000     0.512430000000     0.050112   
H120     H      0.629690000000     0.834910000000     0.441620000000     0.0420003  
H121     H      0.832040000000     0.627430000000     0.554780000000     0.0404406  
H122     H      0.743270000000     0.877360000000     0.489030000000     0.0346118  
H123     H      0.657850000000     0.779120000000     0.481670000000     0.0344249  
H124     H      0.685300000000     0.927810000000     0.496210000000     0.034443   
H125     H      0.926060000000     0.684840000000     0.503400000000    -0.00163994 
H126     H      0.801460000000     0.731910000000     0.442050000000     0.0410745  
H127     H      0.826650000000     0.599710000000     0.507520000000     0.0348544  
H128     H      0.729210000000     0.800460000000     0.557330000000     0.0401908  
H129     H      0.809310000000     0.661650000000     0.469810000000     0.0389186  
H130     H      0.599480000000     0.828470000000     0.487230000000     0.0374307  
H131     H      0.709810000000     0.867170000000     0.531950000000     0.0368475  
H132     H      0.659790000000     0.810170000000     0.527510000000     0.0372297  
H133     H      0.781420000000     0.747850000000     0.571810000000     0.046749   
H134     H      0.866770000000     0.711150000000     0.468540000000     0.0469782  
H135     H      0.687270000000     0.902480000000     0.447360000000     0.0349358  
H136     H      0.922530000000     0.708620000000     0.565130000000     0.136006   
H137     H      0.253150000000     0.210700000000     0.561150000000     0.0439117  
H138     H      0.120210000000     0.255740000000     0.487810000000     0.0357027  
H139     H      0.218250000000     0.341540000000     0.486800000000     0.0501807  
H140     H      0.312620000000     0.094720000000     0.530500000000     0.0333157  
H141     H      0.092370000000     0.314060000000     0.452280000000     0.0344676  
H142     H      0.340550000000     0.221670000000     0.499300000000     0.0344732  
H143     H      0.255870000000     0.122900000000     0.493170000000     0.0347319  
H144     H      0.398730000000     0.172110000000     0.485960000000     0.0352963  
H145     H      0.167860000000     0.398760000000     0.500610000000    -0.0017259  
H146     H      0.199380000000     0.263230000000     0.553920000000     0.0397455  
H147     H      0.070290000000     0.313520000000     0.502630000000     0.0331142  
H148     H      0.264250000000     0.203800000000     0.429560000000     0.0403278  
H149     H      0.131690000000     0.285400000000     0.533090000000     0.0366796  
H150     H      0.314680000000     0.073830000000     0.479700000000     0.0354942  
H151     H      0.335630000000     0.191970000000     0.452890000000     0.0372501  
H152     H      0.287210000000     0.135500000000     0.449360000000     0.0368925  
H153     H      0.210350000000     0.256230000000     0.422320000000     0.0475061  
H154     H      0.187270000000     0.335240000000     0.532050000000     0.0460886  
H155     H      0.374590000000     0.167230000000     0.535110000000     0.0316853  
H156     H      0.188860000000     0.394550000000     0.437920000000     0.136409   
H157     H      0.284890000000     0.755870000000     0.417670000000     0.0435527  
H158     H      0.156960000000     0.720220000000     0.498080000000     0.0359815  
H159     H      0.242000000000     0.622050000000     0.488330000000     0.0505089  
H160     H      0.332510000000     0.875480000000     0.444500000000     0.0324539  
H161     H      0.124310000000     0.665230000000     0.534360000000     0.0409126  
H162     H      0.375990000000     0.756160000000     0.481560000000     0.0344172  
H163     H      0.277910000000     0.841930000000     0.481200000000     0.0346769  
H164     H      0.426130000000     0.813780000000     0.494750000000     0.0372897  
H165     H      0.182340000000     0.572950000000     0.475810000000    -0.00179376 
H166     H      0.231890000000     0.702680000000     0.426030000000     0.0396283  
H167     H      0.098700000000     0.670680000000     0.486000000000     0.0336367  
H168     H      0.298060000000     0.763510000000     0.549030000000     0.0422811  
H169     H      0.160730000000     0.690960000000     0.451280000000     0.0364202  
H170     H      0.327700000000     0.899420000000     0.493810000000     0.0364171  
H171     H      0.365270000000     0.786000000000     0.526920000000     0.0409322  
H172     H      0.308830000000     0.835530000000     0.526640000000     0.0396765  
H173     H      0.245250000000     0.710180000000     0.557360000000     0.0483503  
H174     H      0.208880000000     0.634620000000     0.446020000000     0.0451939  
H175     H      0.402460000000     0.814770000000     0.445120000000     0.0322263  
H176     H      0.209550000000     0.569620000000     0.536100000000     0.135843   
H177     H      0.716230000000     0.437120000000     0.236160000000     0.0443635  
H178     H      0.760990000000     0.516850000000     0.363890000000     0.0360687  
H179     H      0.849750000000     0.508620000000     0.269130000000     0.0507662  
H180     H      0.599530000000     0.467010000000     0.180270000000     0.0330951  
H181     H      0.819710000000     0.552480000000     0.390690000000     0.0389269  
H182     H      0.724830000000     0.497190000000     0.146560000000     0.0348036  
H183     H      0.629910000000     0.505460000000     0.235100000000     0.0344743  
H184     H      0.673180000000     0.509470000000     0.090500000000     0.0353404  
H185     H      0.904690000000     0.495430000000     0.322250000000     0.00155474 
H186     H      0.769890000000     0.445390000000     0.288440000000     0.0426722  
H187     H      0.816040000000     0.503830000000     0.416400000000     0.0347915  
H188     H      0.710900000000     0.568860000000     0.220930000000     0.0404687  
H189     H      0.789420000000     0.469800000000     0.356390000000     0.0404023  
H190     H      0.578430000000     0.517950000000     0.178590000000     0.0349446  
H191     H      0.695590000000     0.544050000000     0.151740000000     0.0371821  
H192     H      0.641280000000     0.548820000000     0.202510000000     0.0369109  
H193     H      0.764610000000     0.577120000000     0.273160000000     0.0475506  
H194     H      0.840730000000     0.465420000000     0.302450000000     0.0516494  
H195     H      0.668610000000     0.460850000000     0.116080000000     0.0333697  
H196     H      0.904200000000     0.557010000000     0.297410000000     0.136264   
H197     H      0.260960000000     0.566750000000     0.220110000000     0.0437569  
H198     H      0.224570000000     0.485880000000     0.349500000000     0.0353152  
H199     H      0.129710000000     0.493140000000     0.260750000000     0.0505321  
H200     H      0.378890000000     0.542860000000     0.169210000000     0.0324525  
H201     H      0.167820000000     0.449690000000     0.379770000000     0.0395825  
H202     H      0.259030000000     0.501260000000     0.130160000000     0.034873   
H203     H      0.348390000000     0.505070000000     0.224550000000     0.0347108  
H204     H      0.315220000000     0.489200000000     0.078100000000     0.0362288  
H205     H      0.078300000000     0.506150000000     0.317380000000    -0.00157503 
H206     H      0.208590000000     0.557670000000     0.273540000000     0.0396515  
H207     H      0.173100000000     0.498150000000     0.405570000000     0.034115   
H208     H      0.271160000000     0.435020000000     0.207790000000     0.0416687  
H209     H      0.195360000000     0.532700000000     0.343880000000     0.0366831  
H210     H      0.404160000000     0.493930000000     0.172440000000     0.0363358  
H211     H      0.290920000000     0.456970000000     0.139980000000     0.0387179  
H212     H      0.342310000000     0.459250000000     0.193960000000     0.0391899  
H213     H      0.218410000000     0.425930000000     0.260910000000     0.0478426  
H214     H      0.140500000000     0.536580000000     0.293220000000     0.0457702  
H215     H      0.314570000000     0.539520000000     0.100610000000     0.0314004  
H216     H      0.077390000000     0.444440000000     0.293100000000     0.136123   
H217     H      0.276680000000     0.418230000000     0.767480000000     0.0427072  
H218     H      0.234490000000     0.482380000000     0.630750000000     0.0358471  
H219     H      0.145790000000     0.489090000000     0.725460000000     0.0508144  
H220     H      0.395080000000     0.451430000000     0.819830000000     0.0254214  
H221     H      0.179370000000     0.517510000000     0.598040000000     0.0445546  
H222     H      0.270460000000     0.488640000000     0.849450000000     0.0342241  
H223     H      0.365460000000     0.483730000000     0.760800000000     0.0341285  
H224     H      0.322610000000     0.506290000000     0.903780000000     0.0346897  
H225     H      0.090100000000     0.473150000000     0.672860000000    -0.00279965 
H226     H      0.223300000000     0.421860000000     0.714270000000     0.0395893  
H227     H      0.177470000000     0.465490000000     0.580100000000     0.0336065  
H228     H      0.286320000000     0.550590000000     0.766790000000     0.0405835  
H229     H      0.203350000000     0.438350000000     0.643450000000     0.0355621  
H230     H      0.417300000000     0.501720000000     0.815660000000     0.0345254  
H231     H      0.300890000000     0.533740000000     0.838760000000     0.0376064  
H232     H      0.355240000000     0.530960000000     0.787920000000     0.0374075  
H233     H      0.233010000000     0.554190000000     0.713610000000     0.049245   
H234     H      0.152430000000     0.442610000000     0.696340000000     0.0451325  
H235     H      0.325680000000     0.454800000000     0.884330000000     0.025309   
H236     H      0.092250000000     0.536040000000     0.693930000000     0.135967   
H237     H      0.772180000000     0.569710000000     0.738570000000     0.0443732  
H238     H      0.735580000000     0.483780000000     0.865420000000     0.0356724  
H239     H      0.646490000000     0.481470000000     0.770580000000     0.0494575  
H240     H      0.891300000000     0.551010000000     0.679540000000     0.0341835  
H241     H      0.679740000000     0.442570000000     0.891610000000     0.0415001  
H242     H      0.769720000000     0.514990000000     0.646290000000     0.034715   
H243     H      0.864980000000     0.509080000000     0.734770000000     0.0345222  
H244     H      0.821390000000     0.508370000000     0.589750000000     0.0360621  
H245     H      0.590190000000     0.487530000000     0.822820000000    -0.0019105  
H246     H      0.720110000000     0.554760000000     0.791050000000     0.0400302  
H247     H      0.679740000000     0.490900000000     0.918080000000     0.0336119  
H248     H      0.789240000000     0.439660000000     0.718630000000     0.0404516  
H249     H      0.702750000000     0.527810000000     0.857680000000     0.0367599  
H250     H      0.917360000000     0.502390000000     0.678910000000     0.0361609  
H251     H      0.800870000000     0.469220000000     0.649780000000     0.0376457  
H252     H      0.856390000000     0.465800000000     0.701230000000     0.0374833  
H253     H      0.737500000000     0.424710000000     0.771410000000     0.0474878  
H254     H      0.650480000000     0.525950000000     0.803190000000     0.0462115  
H255     H      0.825760000000     0.555110000000     0.618680000000     0.0346471  
H256     H      0.602080000000     0.425870000000     0.799770000000     0.135813   
H257     H      0.726340000000     0.730280000000     0.073450000000     0.0446967  
H258     H      0.767770000000     0.856860000000     0.991080000000     0.0339555  
H259     H      0.859640000000     0.764940000000     0.000480000000     0.0503834  
H260     H      0.608380000000     0.675870000000     0.045290000000     0.0319322  
H261     H      0.825130000000     0.884980000000     0.954400000000     0.0416039  
H262     H      0.730880000000     0.638330000000     0.014930000000     0.0345317  
H263     H      0.639690000000     0.731170000000     0.007320000000     0.0367328  
H264     H      0.677370000000     0.584210000000     0.002710000000     0.0358863  
H265     H      0.913170000000     0.820280000000     0.011030000000     0.0025129  
H266     H      0.779920000000     0.782640000000     0.063820000000     0.0413347  
H267     H      0.821160000000     0.911620000000     0.002350000000     0.0370211  
H268     H      0.719700000000     0.712930000000     0.942480000000     0.041032   
H269     H      0.796880000000     0.851300000000     0.037820000000     0.0382725  
H270     H      0.585750000000     0.677540000000     0.995160000000     0.0336218  
H271     H      0.702380000000     0.644930000000     0.967930000000     0.0360615  
H272     H      0.649520000000     0.698710000000     0.963530000000     0.0383214  
H273     H      0.773250000000     0.765240000000     0.932880000000     0.0476738  
H274     H      0.850130000000     0.799210000000     0.042750000000     0.0492677  
H275     H      0.672100000000     0.610950000000     0.050560000000     0.0328981  
H276     H      0.910800000000     0.792980000000     0.950350000000     0.134722   
H277     H      0.728250000000     0.266330000000     0.936110000000     0.0465055  
H278     H      0.766690000000     0.138190000000     0.019100000000     0.0356079  
H279     H      0.857780000000     0.231490000000     0.017040000000     0.0496047  
H280     H      0.609920000000     0.320280000000     0.957090000000     0.0479432  
H281     H      0.824540000000     0.110790000000     0.056550000000     0.0407596  
H282     H      0.729670000000     0.357010000000     0.996040000000     0.0327156  
H283     H      0.637580000000     0.264810000000     0.997410000000     0.0324128  
H284     H      0.675720000000     0.411440000000     0.004940000000     0.0380109  
H285     H      0.912280000000     0.177760000000     0.005500000000    -0.00189208 
H286     H      0.781550000000     0.214230000000     0.947880000000     0.0399822  
H287     H      0.820510000000     0.084390000000     0.008400000000     0.0343532  
H288     H      0.713790000000     0.281310000000     0.066700000000     0.0407542  
H289     H      0.796950000000     0.145740000000     0.973360000000     0.0355493  
H290     H      0.583110000000     0.318860000000     0.005200000000     0.0389726  
H291     H      0.698000000000     0.350400000000     0.040960000000     0.0361276  
H292     H      0.644630000000     0.297370000000     0.041650000000     0.0355974  
H293     H      0.767190000000     0.229170000000     0.078530000000     0.0465468  
H294     H      0.850200000000     0.199780000000     0.972440000000     0.044165   
H295     H      0.673880000000     0.385170000000     0.956620000000     0.0384985  
H296     H      0.907360000000     0.199600000000     0.068000000000     0.135691   
H297     H      0.266030000000     0.734680000000     0.918060000000     0.042983   
H298     H      0.233820000000     0.860580000000     0.006990000000     0.0372503  
H299     H      0.142380000000     0.767610000000     0.008990000000     0.0517206  
H300     H      0.385350000000     0.676200000000     0.931750000000     0.0320526  
H301     H      0.178750000000     0.887030000000     0.049150000000     0.0402751  
H302     H      0.267120000000     0.641450000000     0.973210000000     0.0346649  
H303     H      0.360410000000     0.732600000000     0.973480000000     0.0344963  
H304     H      0.320040000000     0.586040000000     0.978260000000     0.0349904  
H305     H      0.087440000000     0.821610000000     0.003060000000    -0.00130992 
H306     H      0.214290000000     0.787020000000     0.934900000000     0.0399249  
H307     H      0.179590000000     0.914860000000     0.001650000000     0.0330054  
H308     H      0.287720000000     0.714440000000     0.046960000000     0.040001   
H309     H      0.200390000000     0.854390000000     0.963300000000     0.0369521  
H310     H      0.414440000000     0.678310000000     0.978440000000     0.0355332  
H311     H      0.299790000000     0.646360000000     0.017650000000     0.0394249  
H312     H      0.354620000000     0.699860000000     0.017790000000     0.0395422  
H313     H      0.236080000000     0.766900000000     0.063800000000     0.047002   
H314     H      0.146850000000     0.800450000000     0.964780000000     0.0464589  
H315     H      0.322940000000     0.615180000000     0.931600000000     0.0324157  
H316     H      0.096930000000     0.798640000000     0.064530000000     0.136163   
H317     H      0.264590000000     0.269250000000     0.067480000000     0.0455631  
H318     H      0.229880000000     0.141920000000     0.980720000000     0.0358465  
H319     H      0.137000000000     0.233190000000     0.986790000000     0.0498763  
H320     H      0.381100000000     0.325310000000     0.049660000000     0.0425509  
H321     H      0.173450000000     0.115110000000     0.941190000000     0.05081    
H322     H      0.263460000000     0.361930000000     0.006910000000     0.0368582  
H323     H      0.354810000000     0.268960000000     0.009400000000     0.0359947  
H324     H      0.318090000000     0.415830000000     0.998270000000     0.0308429  
H325     H      0.083330000000     0.178010000000     0.993830000000    -0.0044913  
H326     H      0.212800000000     0.215880000000     0.054290000000     0.0397567  
H327     H      0.176810000000     0.086540000000     0.988140000000     0.0330002  
H328     H      0.279810000000     0.286810000000     0.937270000000     0.0400442  
H329     H      0.198870000000     0.146710000000     0.026320000000     0.0370395  
H330     H      0.409850000000     0.322000000000     0.002760000000     0.0337616  
H331     H      0.296020000000     0.354390000000     0.962770000000     0.0354248  
H332     H      0.349310000000     0.300810000000     0.964400000000     0.0348715  
H333     H      0.227730000000     0.233770000000     0.924100000000     0.0477852  
H334     H      0.144700000000     0.198780000000     0.029350000000     0.0460138  
H335     H      0.318850000000     0.390220000000     0.046980000000     0.0352089  
H336     H      0.090460000000     0.204760000000     0.933080000000     0.134779   
H337     H      0.761660000000     0.931070000000     0.770360000000     0.0448787  
H338     H      0.725130000000     0.022890000000     0.647660000000     0.035407   
H339     H      0.630470000000     0.010040000000     0.736100000000     0.0497922  
H340     H      0.879870000000     0.949500000000     0.824350000000     0.0425359  
H341     H      0.666880000000     0.060590000000     0.621150000000     0.040838   
H342     H      0.761760000000     0.988950000000     0.864890000000     0.0349756  
H343     H      0.850830000000     0.990710000000     0.770060000000     0.0322886  
H344     H      0.817460000000     0.996680000000     0.917550000000     0.0354131  
H345     H      0.578700000000     0.000640000000     0.679340000000    -0.00130688 
H346     H      0.708720000000     0.944870000000     0.718510000000     0.0403861  
H347     H      0.674080000000     0.014960000000     0.591050000000     0.0336256  
H348     H      0.774460000000     0.061360000000     0.791860000000     0.0396811  
H349     H      0.696400000000     0.975490000000     0.650210000000     0.0352472  
H350     H      0.907030000000     0.997500000000     0.821970000000     0.0373286  
H351     H      0.793390000000     0.034000000000     0.857940000000     0.0386025  
H352     H      0.845210000000     0.034930000000     0.803010000000     0.036433   
H353     H      0.721100000000     0.075170000000     0.740350000000     0.0471523  
H354     H      0.641090000000     0.968240000000     0.701510000000     0.0439719  
H355     H      0.818620000000     0.948780000000     0.890300000000     0.0363628  
H356     H      0.579810000000     0.061520000000     0.706030000000     0.135863   
H357     H      0.260540000000     0.916760000000     0.723070000000     0.0440844  
H358     H      0.133390000000     0.002010000000     0.760410000000     0.0383386  
H359     H      0.228660000000     0.003560000000     0.848990000000     0.0521149  
H360     H      0.319120000000     0.935330000000     0.603480000000     0.0343855  
H361     H      0.108420000000     0.044410000000     0.815540000000     0.051862   
H362     H      0.351800000000     0.973950000000     0.723860000000     0.0348433  
H363     H      0.262190000000     0.975500000000     0.629490000000     0.0350118  
H364     H      0.407780000000     0.981260000000     0.672110000000     0.0362567  
H365     H      0.175820000000     0.997370000000     0.905310000000    -0.00478261 
H366     H      0.208730000000     0.931270000000     0.776000000000     0.0393095  
H367     H      0.080620000000     0.996720000000     0.816190000000     0.0338128  
H368     H      0.277510000000     0.047000000000     0.704230000000     0.0408527  
H369     H      0.140730000000     0.958330000000     0.793730000000     0.0371509  
H370     H      0.317550000000     0.983500000000     0.576610000000     0.0356293  
H371     H      0.346630000000     0.019200000000     0.692260000000     0.0398857  
H372     H      0.294150000000     0.020170000000     0.637170000000     0.0396643  
H373     H      0.225660000000     0.061450000000     0.757010000000     0.0484143  
H374     H      0.195380000000     0.959560000000     0.845030000000     0.0461487  
H375     H      0.379710000000     0.933960000000     0.667850000000     0.0343168  
H376     H      0.200850000000     0.058470000000     0.895100000000     0.135943   
H377     H      0.281800000000     0.934040000000     0.259160000000     0.0432761  
H378     H      0.236470000000     0.008730000000     0.129660000000     0.0379441  
H379     H      0.147730000000     0.005910000000     0.224700000000     0.052845   
H380     H      0.399380000000     0.967790000000     0.313690000000     0.0298356  
H381     H      0.178530000000     0.043930000000     0.100950000000     0.0311654  
H382     H      0.272660000000     0.993250000000     0.347560000000     0.0321884  
H383     H      0.367470000000     0.005640000000     0.259430000000     0.0349601  
H384     H      0.323880000000     0.006580000000     0.403940000000     0.0378523  
H385     H      0.092510000000     0.991440000000     0.172070000000    -0.00390925 
H386     H      0.228030000000     0.940880000000     0.206790000000     0.0411594  
H387     H      0.180980000000     0.993940000000     0.077830000000     0.0311426  
H388     H      0.285520000000     0.066030000000     0.272480000000     0.0395694  
H389     H      0.207320000000     0.962520000000     0.139190000000     0.0390991  
H390     H      0.418280000000     0.019510000000     0.316450000000     0.0351699  
H391     H      0.300420000000     0.041040000000     0.342930000000     0.0361735  
H392     H      0.354560000000     0.048180000000     0.292490000000     0.0369367  
H393     H      0.232060000000     0.072890000000     0.219770000000     0.0473996  
H394     H      0.156070000000     0.961270000000     0.193170000000     0.0482283  
H395     H      0.329750000000     0.958320000000     0.377970000000     0.0337103  
H396     H      0.093860000000     0.053870000000     0.194640000000     0.136649   
H397     H      0.734620000000     0.081870000000     0.275590000000     0.0435101  
H398     H      0.771580000000     0.001700000000     0.146920000000     0.0360221  
H399     H      0.866580000000     0.008520000000     0.235450000000     0.0511227  
H400     H      0.616310000000     0.055480000000     0.327300000000     0.0259826  
H401     H      0.826830000000     0.964520000000     0.115810000000     0.0413759  
H402     H      0.736830000000     0.018930000000     0.366320000000     0.0343629  
H403     H      0.647580000000     0.018220000000     0.271680000000     0.0345458  
H404     H      0.681370000000     0.006040000000     0.418560000000     0.0359204  
H405     H      0.918070000000     0.020240000000     0.178160000000    -0.0010014  
H406     H      0.787260000000     0.072840000000     0.222330000000     0.0410424  
H407     H      0.823680000000     0.013520000000     0.090770000000     0.0362412  
H408     H      0.726020000000     0.950150000000     0.289280000000     0.04202    
H409     H      0.801640000000     0.047980000000     0.152250000000     0.0373967  
H410     H      0.592060000000     0.006070000000     0.323430000000     0.0366252  
H411     H      0.706830000000     0.973180000000     0.357160000000     0.0375133  
H412     H      0.655150000000     0.972850000000     0.302620000000     0.0382473  
H413     H      0.778740000000     0.941150000000     0.236170000000     0.0488659  
H414     H      0.856260000000     0.051500000000     0.202280000000     0.0467932  
H415     H      0.679030000000     0.055550000000     0.394350000000     0.0260682  
H416     H      0.918920000000     0.959370000000     0.204540000000     0.135821   
H417     H      0.928690000000     0.268990000000     0.726090000000     0.0430969  
H418     H      0.013710000000     0.228210000000     0.851010000000     0.0375116  
H419     H      0.998480000000     0.134610000000     0.761820000000     0.0501632  
H420     H      0.956940000000     0.385380000000     0.672530000000     0.0333277  
H421     H      0.049850000000     0.169860000000     0.877960000000     0.0527573  
H422     H      0.987540000000     0.262670000000     0.632840000000     0.0324741  
H423     H      0.995900000000     0.353110000000     0.726070000000     0.0321008  
H424     H      0.999890000000     0.317240000000     0.579360000000     0.0355885  
H425     H      0.988230000000     0.082570000000     0.818260000000    -0.00360884 
H426     H      0.938160000000     0.216250000000     0.779190000000     0.0403514  
H427     H      0.003610000000     0.176490000000     0.907220000000     0.0351309  
H428     H      0.059710000000     0.272080000000     0.705990000000     0.0397635  
H429     H      0.965860000000     0.200350000000     0.847730000000     0.036441   
H430     H      0.007460000000     0.407510000000     0.672780000000     0.0381716  
H431     H      0.034470000000     0.291490000000     0.639360000000     0.0365219  
H432     H      0.039190000000     0.343620000000     0.692810000000     0.0363264  
H433     H      0.069110000000     0.219180000000     0.758860000000     0.0497074  
H434     H      0.957540000000     0.146190000000     0.797090000000     0.0461165  
H435     H      0.951430000000     0.320770000000     0.605350000000     0.0316125  
H436     H      0.048330000000     0.083260000000     0.789150000000     0.135722   
H437     H      0.072280000000     0.725150000000     0.734160000000     0.0456231  
H438     H      0.989810000000     0.762990000000     0.862230000000     0.0334298  
H439     H      0.989340000000     0.853130000000     0.768290000000     0.0500052  
H440     H      0.050730000000     0.606490000000     0.677460000000     0.040254   
H441     H      0.949860000000     0.819300000000     0.888810000000     0.050807   
H442     H      0.013450000000     0.728200000000     0.643710000000     0.0350255  
H443     H      0.010710000000     0.633780000000     0.733350000000     0.0346829  
H444     H      0.004680000000     0.675810000000     0.588100000000     0.0391092  
H445     H      0.998310000000     0.908650000000     0.821420000000    -0.00204637 
H446     H      0.059850000000     0.777870000000     0.786670000000     0.039139   
H447     H      0.998150000000     0.818060000000     0.915380000000     0.03561    
H448     H      0.941530000000     0.710240000000     0.718250000000     0.0431684  
H449     H      0.034390000000     0.795080000000     0.854540000000     0.0355807  
H450     H      0.001930000000     0.580800000000     0.678170000000     0.0381243  
H451     H      0.968050000000     0.696800000000     0.649160000000     0.0403274  
H452     H      0.966460000000     0.642110000000     0.701070000000     0.0375843  
H453     H      0.929110000000     0.762850000000     0.770860000000     0.0480821  
H454     H      0.033780000000     0.847390000000     0.800620000000     0.0471409  
H455     H      0.052690000000     0.672330000000     0.614980000000     0.0364102  
H456     H      0.936410000000     0.900960000000     0.797950000000     0.135449   
H457     H      0.957160000000     0.722570000000     0.286650000000     0.0420109  
H458     H      0.013480000000     0.863080000000     0.233220000000     0.0364466  
H459     H      0.008330000000     0.768990000000     0.143510000000     0.0513223  
H460     H      0.064230000000     0.673530000000     0.388790000000     0.0322402  
H461     H      0.973960000000     0.893550000000     0.179420000000     0.0417442  
H462     H      0.023570000000     0.642900000000     0.268430000000     0.0346888  
H463     H      0.029090000000     0.733280000000     0.362050000000     0.0344219  
H464     H      0.010730000000     0.588230000000     0.320790000000     0.0376356  
H465     H      0.018720000000     0.822810000000     0.088170000000     0.000340776
H466     H      0.947570000000     0.775770000000     0.234110000000     0.0491087  
H467     H      0.024310000000     0.915750000000     0.177150000000     0.0346209  
H468     H      0.088500000000     0.729960000000     0.270230000000     0.0435439  
H469     H      0.056900000000     0.853470000000     0.200250000000     0.0381962  
H470     H      0.016220000000     0.679310000000     0.415260000000     0.0363555  
H471     H      0.978800000000     0.652230000000     0.299740000000     0.0387418  
H472     H      0.982020000000     0.704970000000     0.354350000000     0.0373745  
H473     H      0.078850000000     0.783260000000     0.217620000000     0.0411541  
H474     H      0.053520000000     0.800440000000     0.148600000000     0.0491619  
H475     H      0.060490000000     0.611720000000     0.324660000000     0.0321884  
H476     H      0.956800000000     0.799750000000     0.093390000000     0.136767   
H477     H      0.058090000000     0.236630000000     0.224120000000     0.0444704  
H478     H      0.972890000000     0.271690000000     0.351350000000     0.0358749  
H479     H      0.976790000000     0.365950000000     0.261590000000     0.0505345  
H480     H      0.039310000000     0.116430000000     0.171960000000     0.0318677  
H481     H      0.933870000000     0.328330000000     0.379110000000     0.0480797  
H482     H      0.996460000000     0.235620000000     0.132780000000     0.0347754  
H483     H      0.999190000000     0.145540000000     0.226620000000     0.0350138  
H484     H      0.988250000000     0.179830000000     0.079840000000     0.035287   
H485     H      0.987050000000     0.418690000000     0.317510000000    -0.00275688 
H486     H      0.045510000000     0.289510000000     0.276460000000     0.041671   
H487     H      0.981120000000     0.323770000000     0.407100000000     0.0327931  
H488     H      0.927440000000     0.220650000000     0.208770000000     0.0418189  
H489     H      0.018560000000     0.302690000000     0.346040000000     0.0391172  
H490     H      0.991130000000     0.089750000000     0.173750000000     0.0351178  
H491     H      0.952650000000     0.202630000000     0.140750000000     0.0418134  
H492     H      0.954230000000     0.150790000000     0.194770000000     0.0404019  
H493     H      0.914840000000     0.273750000000     0.260940000000     0.0478136  
H494     H      0.020630000000     0.357400000000     0.294080000000     0.0492218  
H495     H      0.037270000000     0.180700000000     0.104890000000     0.0269347  
H496     H      0.925210000000     0.415430000000     0.293710000000     0.135858   
N1       N      0.479420000000     0.377810000000     0.131500000000    -0.203669   
N2       N      0.471610000000     0.319950000000     0.195700000000    -0.0999516  
N3       N      0.498420000000     0.198830000000     0.319390000000    -0.112789   
N4       N      0.493590000000     0.134160000000     0.376920000000    -0.193246   
N5       N      0.524400000000     0.879470000000     0.363150000000    -0.202811   
N6       N      0.529370000000     0.821020000000     0.298770000000    -0.0999637  
N7       N      0.493630000000     0.699430000000     0.177220000000    -0.112504   
N8       N      0.495460000000     0.634790000000     0.119000000000    -0.186119   
N9       N      0.493170000000     0.864040000000     0.617730000000    -0.202601   
N10      N      0.483360000000     0.799750000000     0.674960000000    -0.10009    
N11      N      0.506150000000     0.678300000000     0.798730000000    -0.112486   
N12      N      0.499520000000     0.620500000000     0.862560000000    -0.19004    
N13      N      0.508120000000     0.364420000000     0.877480000000    -0.20635    
N14      N      0.513230000000     0.300300000000     0.819410000000    -0.0995697  
N15      N      0.484500000000     0.179470000000     0.696000000000    -0.112173   
N16      N      0.490010000000     0.121220000000     0.632150000000    -0.188486   
N17      N      0.858740000000     0.381770000000     0.486870000000    -0.202516   
N18      N      0.792870000000     0.324900000000     0.484690000000    -0.0997895  
N19      N      0.673110000000     0.202280000000     0.522790000000    -0.112348   
N20      N      0.616280000000     0.136390000000     0.518390000000    -0.191929   
N21      N      0.880770000000     0.637860000000     0.513090000000    -0.201485   
N22      N      0.824220000000     0.703770000000     0.518040000000    -0.10007    
N23      N      0.703760000000     0.825780000000     0.481220000000    -0.112256   
N24      N      0.638080000000     0.882560000000     0.484840000000    -0.188248   
N25      N      0.114560000000     0.361300000000     0.491030000000    -0.207011   
N26      N      0.171270000000     0.296180000000     0.481750000000    -0.0998406  
N27      N      0.295580000000     0.174150000000     0.501830000000    -0.112255   
N28      N      0.361400000000     0.118190000000     0.494550000000    -0.189153   
N29      N      0.136400000000     0.616690000000     0.492830000000    -0.203245   
N30      N      0.202190000000     0.672920000000     0.498950000000    -0.0995962  
N31      N      0.324690000000     0.796420000000     0.476270000000    -0.112302   
N32      N      0.381440000000     0.861660000000     0.484910000000    -0.185681   
N33      N      0.865770000000     0.510020000000     0.373180000000    -0.203368   
N34      N      0.803340000000     0.518290000000     0.314180000000    -0.0995264  
N35      N      0.679250000000     0.495820000000     0.193380000000    -0.11244    
N36      N      0.620840000000     0.502630000000     0.130310000000    -0.188407   
N37      N      0.120600000000     0.492140000000     0.365730000000    -0.206747   
N38      N      0.179200000000     0.484170000000     0.302530000000    -0.0997934  
N39      N      0.301200000000     0.508550000000     0.179510000000    -0.112279   
N40      N      0.364110000000     0.502440000000     0.120550000000    -0.189247   
N41      N      0.129210000000     0.483290000000     0.621360000000    -0.202976   
N42      N      0.192290000000     0.492170000000     0.679610000000    -0.0991971  
N43      N      0.315820000000     0.480480000000     0.803120000000    -0.112804   
N44      N      0.374690000000     0.493090000000     0.865330000000    -0.193331   
N45      N      0.630500000000     0.481510000000     0.874640000000    -0.202805   
N46      N      0.694050000000     0.478210000000     0.815330000000    -0.0997609  
N47      N      0.814680000000     0.516200000000     0.693680000000    -0.112435   
N48      N      0.873840000000     0.512820000000     0.630000000000    -0.185994   
N49      N      0.872310000000     0.869800000000     0.996390000000    -0.200048   
N50      N      0.811680000000     0.808340000000     0.990320000000    -0.101055   
N51      N      0.687590000000     0.687430000000     0.015880000000    -0.112116   
N52      N      0.626500000000     0.626540000000     0.007020000000    -0.188392   
N53      N      0.871270000000     0.126810000000     0.014330000000    -0.203975   
N54      N      0.809590000000     0.187500000000     0.022560000000    -0.10065    
N55      N      0.686190000000     0.308260000000     0.991930000000    -0.114859   
N56      N      0.624970000000     0.369560000000     0.996420000000    -0.186792   
N57      N      0.129190000000     0.872350000000     0.009760000000    -0.20429    
N58      N      0.191090000000     0.811270000000     0.012080000000    -0.0984815  
N59      N      0.310800000000     0.690090000000     0.969770000000    -0.112085   
N60      N      0.371450000000     0.627840000000     0.972880000000    -0.189629   
N61      N      0.125400000000     0.128300000000     0.982730000000    -0.205482   
N62      N      0.185850000000     0.190310000000     0.978870000000    -0.0986647  
N63      N      0.306380000000     0.312840000000     0.012680000000    -0.110463   
N64      N      0.368210000000     0.373470000000     0.008220000000    -0.192436   
N65      N      0.621350000000     0.015230000000     0.631310000000    -0.203401   
N66      N      0.680210000000     0.020780000000     0.695050000000    -0.100863   
N67      N      0.803440000000     0.985440000000     0.814720000000    -0.11261    
N68      N      0.866840000000     0.989230000000     0.873980000000    -0.185122   
N69      N      0.124260000000     0.005960000000     0.865240000000    -0.201406   
N70      N      0.183630000000     0.007620000000     0.801800000000    -0.096283   
N71      N      0.303920000000     0.970740000000     0.679500000000    -0.111847   
N72      N      0.367150000000     0.975950000000     0.619910000000    -0.18603    
N73      N      0.131490000000     0.003560000000     0.120630000000    -0.208766   
N74      N      0.194230000000     0.013020000000     0.179300000000    -0.0980979  
N75      N      0.318390000000     0.993800000000     0.300880000000    -0.113862   
N76      N      0.376450000000     0.001470000000     0.364260000000    -0.188964   
N77      N      0.875800000000     0.004770000000     0.130400000000    -0.202077   
N78      N      0.817110000000     0.999340000000     0.193710000000    -0.102063   
N79      N      0.694740000000     0.023550000000     0.316580000000    -0.113325   
N80      N      0.631840000000     0.014940000000     0.375620000000    -0.192459   
N81      N      0.005250000000     0.124220000000     0.866360000000    -0.203621   
N82      N      0.011530000000     0.183150000000     0.803700000000    -0.0977995  
N83      N      0.986450000000     0.305800000000     0.681940000000    -0.114393   
N84      N      0.993560000000     0.367440000000     0.621990000000    -0.190057   
N85      N      0.989610000000     0.868010000000     0.872530000000    -0.200287   
N86      N      0.984650000000     0.805410000000     0.812790000000    -0.100209   
N87      N      0.016720000000     0.683490000000     0.691310000000    -0.112683   
N88      N      0.011570000000     0.623830000000     0.628690000000    -0.184542   
N89      N      0.009060000000     0.873740000000     0.128500000000    -0.202386   
N90      N      0.005100000000     0.814010000000     0.190850000000    -0.098868   
N91      N      0.030710000000     0.690660000000     0.312540000000    -0.113169   
N92      N      0.019970000000     0.628770000000     0.372460000000    -0.189183   
N93      N      0.976070000000     0.376090000000     0.366540000000    -0.203979   
N94      N      0.970220000000     0.316210000000     0.303570000000    -0.0989335  
N95      N      0.002770000000     0.193410000000     0.182270000000    -0.109188   
N96      N      0.999860000000     0.130460000000     0.122350000000    -0.191855   
O1       O      0.998370000000     0.111130000000     0.053460000000    -0.621065   
O2       O      0.004620000000     0.889950000000     0.059080000000    -0.567826   
O3       O      0.944490000000     0.005720000000     0.110210000000    -0.614872   
O4       O      0.061670000000     0.000380000000     0.105410000000    -0.632922   
O5       O      0.111750000000     0.000180000000     0.052080000000    -0.630124   
O6       O      0.890950000000     0.001600000000     0.060550000000    -0.571765   
O7       O      0.008450000000     0.942910000000     0.109420000000    -0.616463   
O8       O      0.000010000000     0.060480000000     0.106270000000    -0.625808   
O9       O      0.041770000000     0.960340000000     0.037480000000    -1.47649    
O10      O      0.960340000000     0.040320000000     0.038350000000    -1.47889    
O11      O      0.954570000000     0.953000000000     0.041970000000    -1.05543    
O12      O      0.042530000000     0.042620000000     0.036930000000    -1.63965    
O13      O      0.996480000000     0.886970000000     0.941200000000    -0.566696   
O14      O      0.002170000000     0.108800000000     0.936110000000    -0.611554   
O15      O      0.889280000000     0.939340000000     0.999470000000    -0.571088   
O16      O      0.111210000000     0.941420000000     0.001920000000    -0.613446   
O17      O      0.108910000000     0.058730000000     0.988760000000    -0.623333   
O18      O      0.888760000000     0.057860000000     0.005200000000    -0.576724   
O19      O      0.936750000000     0.994170000000     0.889100000000    -0.562465   
O20      O      0.055460000000     0.000410000000     0.885180000000    -0.564622   
O21      O      0.886680000000     0.995290000000     0.942450000000    -0.568332   
O22      O      0.108820000000     0.003360000000     0.935070000000    -0.608772   
O23      O      0.941520000000     0.887900000000     0.999560000000    -0.562676   
O24      O      0.940150000000     0.109980000000     0.004060000000    -0.611964   
O25      O      0.056600000000     0.110020000000     0.989830000000    -0.625271   
O26      O      0.059900000000     0.889220000000     0.002900000000    -0.572771   
O27      O      0.994140000000     0.937700000000     0.888480000000    -0.568431   
O28      O      0.998830000000     0.055740000000     0.885860000000    -0.577344   
O29      O      0.038220000000     0.039020000000     0.955270000000    -1.46644    
O30      O      0.958530000000     0.957990000000     0.959850000000    -1.37792    
O31      O      0.950710000000     0.039980000000     0.951490000000    -1.06431    
O32      O      0.040510000000     0.951520000000     0.950520000000    -1.06324    
O33      O      0.983300000000     0.391210000000     0.436180000000    -0.62145    
O34      O      0.010200000000     0.610670000000     0.440940000000    -0.576007   
O35      O      0.935290000000     0.503640000000     0.388680000000    -0.613624   
O36      O      0.052260000000     0.498740000000     0.385730000000    -0.626602   
O37      O      0.105550000000     0.493670000000     0.435600000000    -0.630338   
O38      O      0.885320000000     0.508280000000     0.441840000000    -0.578073   
O39      O      0.006640000000     0.560140000000     0.388230000000    -0.611715   
O40      O      0.985640000000     0.444490000000     0.386070000000    -0.620776   
O41      O      0.040060000000     0.537010000000     0.456970000000    -1.47926    
O42      O      0.952710000000     0.463510000000     0.457470000000    -1.46994    
O43      O      0.953530000000     0.551300000000     0.458230000000    -1.0634     
O44      O      0.034340000000     0.455000000000     0.453240000000    -1.64453    
O45      O      0.007530000000     0.608220000000     0.559110000000    -0.56521    
O46      O      0.993670000000     0.386550000000     0.553160000000    -0.618253   
O47      O      0.892190000000     0.567470000000     0.505520000000    -0.568995   
O48      O      0.112990000000     0.548800000000     0.490890000000    -0.609485   
O49      O      0.102350000000     0.431740000000     0.494660000000    -0.633492   
O50      O      0.881990000000     0.449310000000     0.495300000000    -0.569877   
O51      O      0.942090000000     0.503830000000     0.609980000000    -0.564416   
O52      O      0.059540000000     0.489030000000     0.605800000000    -0.566866   
O53      O      0.888790000000     0.508770000000     0.560090000000    -0.564672   
O54      O      0.109510000000     0.484300000000     0.552610000000    -0.615218   
O55      O      0.948140000000     0.614800000000     0.504710000000    -0.569266   
O56      O      0.929330000000     0.393620000000     0.490370000000    -0.608324   
O57      O      0.046600000000     0.384180000000     0.494920000000    -0.626494   
O58      O      0.065860000000     0.604660000000     0.496180000000    -0.57364    
O59      O      0.004750000000     0.555110000000     0.609440000000    -0.560407   
O60      O      0.997760000000     0.436990000000     0.605990000000    -0.580124   
O61      O      0.035590000000     0.454190000000     0.535380000000    -1.46716    
O62      O      0.962030000000     0.541540000000     0.539770000000    -1.37572    
O63      O      0.948470000000     0.459990000000     0.544460000000    -1.05684    
O64      O      0.044470000000     0.541010000000     0.543880000000    -1.05653    
O65      O      0.611810000000     0.009410000000     0.444080000000    -0.627637   
O66      O      0.391470000000     0.997290000000     0.433910000000    -0.576006   
O67      O      0.514150000000     0.947520000000     0.384050000000    -0.610086   
O68      O      0.497140000000     0.063940000000     0.390860000000    -0.630191   
O69      O      0.491050000000     0.112720000000     0.445090000000    -0.633575   
O70      O      0.514300000000     0.892920000000     0.432710000000    -0.569652   
O71      O      0.444930000000     0.005680000000     0.384710000000    -0.616454   
O72      O      0.562180000000     0.008180000000     0.390370000000    -0.629917   
O73      O      0.457670000000     0.039250000000     0.457580000000    -1.4672     
O74      O      0.544560000000     0.964970000000     0.457030000000    -1.47461    
O75      O      0.458310000000     0.951730000000     0.451240000000    -1.06208    
O76      O      0.539640000000     0.047060000000     0.460010000000    -1.64125    
O77      O      0.386860000000     0.985160000000     0.551620000000    -0.561498   
O78      O      0.607270000000     0.010850000000     0.561330000000    -0.615405   
O79      O      0.449340000000     0.884350000000     0.489570000000    -0.562159   
O80      O      0.431990000000     0.105950000000     0.496420000000    -0.61565    
O81      O      0.548760000000     0.113860000000     0.509710000000    -0.627999   
O82      O      0.567620000000     0.894270000000     0.490470000000    -0.573355   
O83      O      0.496600000000     0.934330000000     0.604490000000    -0.573312   
O84      O      0.492880000000     0.052740000000     0.610980000000    -0.569668   
O85      O      0.502200000000     0.885560000000     0.550180000000    -0.569462   
O86      O      0.493070000000     0.107270000000     0.562180000000    -0.615707   
O87      O      0.393720000000     0.932090000000     0.490330000000    -0.56451    
O88      O      0.615080000000     0.949960000000     0.493600000000    -0.616959   
O89      O      0.604420000000     0.066220000000     0.509280000000    -0.626123   
O90      O      0.384470000000     0.050270000000     0.493480000000    -0.571371   
O91      O      0.436510000000     0.986440000000     0.605340000000    -0.565569   
O92      O      0.553890000000     0.002430000000     0.610550000000    -0.571186   
O93      O      0.534760000000     0.040690000000     0.541450000000    -1.4763     
O94      O      0.461150000000     0.954260000000     0.533570000000    -1.3732     
O95      O      0.543270000000     0.953360000000     0.543700000000    -1.06129    
O96      O      0.447600000000     0.035120000000     0.544380000000    -1.05353    
O97      O      0.437770000000     0.389920000000     0.004570000000    -0.629497   
O98      O      0.439880000000     0.610100000000     0.984560000000    -0.571344   
O99      O      0.384220000000     0.499490000000     0.051980000000    -0.611382   
O100     O      0.389720000000     0.498440000000     0.934940000000    -0.629631   
O101     O      0.443450000000     0.495480000000     0.885340000000    -0.632298   
O102     O      0.433990000000     0.503130000000     0.105400000000    -0.575507   
O103     O      0.387720000000     0.558750000000     0.983340000000    -0.612629   
O104     O      0.386670000000     0.442260000000     0.000440000000    -0.62699    
O105     O      0.459310000000     0.537640000000     0.953430000000    -1.46992    
O106     O      0.455220000000     0.461440000000     0.038050000000    -1.47416    
O107     O      0.454280000000     0.549060000000     0.039950000000    -1.06177    
O108     O      0.456820000000     0.455310000000     0.956390000000    -1.64068    
O109     O      0.557600000000     0.609550000000     0.997930000000    -0.570293   
O110     O      0.555550000000     0.387470000000     0.999670000000    -0.611341   
O111     O      0.495440000000     0.564360000000     0.104940000000    -0.566495   
O112     O      0.498060000000     0.552080000000     0.883740000000    -0.619255   
O113     O      0.504780000000     0.434720000000     0.891200000000    -0.629338   
O114     O      0.487920000000     0.445950000000     0.110640000000    -0.573788   
O115     O      0.605930000000     0.501030000000     0.060580000000    -0.572129   
O116     O      0.610490000000     0.491800000000     0.942720000000    -0.572315   
O117     O      0.552220000000     0.504930000000     0.110160000000    -0.572095   
O118     O      0.560610000000     0.487320000000     0.889490000000    -0.611864   
O119     O      0.497300000000     0.613430000000     0.050660000000    -0.560778   
O120     O      0.488520000000     0.391440000000     0.061850000000    -0.61331    
O121     O      0.501230000000     0.385680000000     0.945410000000    -0.629495   
O122     O      0.499210000000     0.606580000000     0.932600000000    -0.572717   
O123     O      0.608770000000     0.557270000000     0.002500000000    -0.573114   
O124     O      0.607660000000     0.438910000000     0.000310000000    -0.574725   
O125     O      0.538800000000     0.456300000000     0.961050000000    -1.48213    
O126     O      0.536680000000     0.541060000000     0.037070000000    -1.37318    
O127     O      0.541980000000     0.459210000000     0.048170000000    -1.06974    
O128     O      0.546670000000     0.543400000000     0.955140000000    -1.0556     
O129     O      0.431300000000     0.326490000000     0.115780000000    -0.277766   
O130     O      0.574670000000     0.829410000000     0.376060000000    -0.278948   
O131     O      0.446770000000     0.814530000000     0.593360000000    -0.277207   
O132     O      0.551690000000     0.311680000000     0.900200000000    -0.274215   
O133     O      0.867550000000     0.332490000000     0.435100000000    -0.27376    
O134     O      0.901710000000     0.686500000000     0.561930000000    -0.278741   
O135     O      0.164090000000     0.376990000000     0.441150000000    -0.283981   
O136     O      0.187610000000     0.590870000000     0.536410000000    -0.274792   
O137     O      0.885480000000     0.556090000000     0.321450000000    -0.279361   
O138     O      0.097920000000     0.445630000000     0.315600000000    -0.284419   
O139     O      0.111220000000     0.533100000000     0.670260000000    -0.272687   
O140     O      0.618170000000     0.430560000000     0.825230000000    -0.275093   
O141     O      0.892650000000     0.817550000000     0.951130000000    -0.2736     
O142     O      0.888980000000     0.175460000000     0.064410000000    -0.277407   
O143     O      0.115280000000     0.822640000000     0.060010000000    -0.279314   
O144     O      0.107820000000     0.179730000000     0.935440000000    -0.271923   
O145     O      0.599530000000     0.060610000000     0.682800000000    -0.277936   
O146     O      0.175470000000     0.054940000000     0.878540000000    -0.271487   
O147     O      0.112600000000     0.051810000000     0.170680000000    -0.288185   
O148     O      0.898390000000     0.959860000000     0.182000000000    -0.276376   
O149     O      0.048660000000     0.101500000000     0.813600000000    -0.271656   
O150     O      0.939990000000     0.883540000000     0.822720000000    -0.274495   
O151     O      0.960040000000     0.823290000000     0.112540000000    -0.275711   
O152     O      0.927820000000     0.395700000000     0.316820000000    -0.273951   


