data_structure

_audit_creation_method RASPA-1.0
_audit_creation_date 2023-5-19
_audit_author_name 'Poobodin Mano'

_cell_length_a    32.5745
_cell_length_b    32.5537
_cell_length_c    32.596
_cell_angle_alpha 90
_cell_angle_beta  90
_cell_angle_gamma 90
_cell_volume      34565.5

_symmetry_cell_setting          triclinic
_symmetry_space_group_name_Hall 'P 1'
_symmetry_space_group_name_H-M  'P 1'
_symmetry_Int_Tables_number     1

_symmetry_equiv_pos_as_xyz 'x,y,z'

loop_
_atom_site_label
_atom_site_type_symbol
_atom_site_fract_x
_atom_site_fract_y
_atom_site_fract_z
_atom_site_charge
C1       C      0.009020000000     0.107060000000     0.104670000000     0.49922    
C2       C      0.024020000000     0.910920000000     0.106330000000     0.500845   
C3       C      0.915430000000     0.010870000000     0.112080000000     0.502083   
C4       C      0.111440000000     0.008510000000     0.099390000000     0.499898   
C5       C      0.998930000000     0.908660000000     0.910370000000     0.496592   
C6       C      0.004740000000     0.106150000000     0.908430000000     0.50341    
C7       C      0.911180000000     0.907710000000     0.013180000000     0.491351   
C8       C      0.108390000000     0.911510000000     0.006590000000     0.501806   
C9       C      0.103570000000     0.107910000000     0.998650000000     0.504515   
C10      C      0.908420000000     0.105140000000     0.021390000000     0.501741   
C11      C      0.903510000000     0.005690000000     0.915230000000     0.491195   
C12      C      0.100380000000     0.016910000000     0.903530000000     0.500395   
C13      C      0.999710000000     0.411840000000     0.406960000000     0.514131   
C14      C      0.012220000000     0.608080000000     0.410540000000     0.500022   
C15      C      0.907970000000     0.506070000000     0.408810000000     0.503637   
C16      C      0.104340000000     0.514530000000     0.408870000000     0.504597   
C17      C      0.007640000000     0.603650000000     0.607960000000     0.490965   
C18      C      0.015010000000     0.406200000000     0.602570000000     0.505392   
C19      C      0.909620000000     0.606840000000     0.514870000000     0.493314   
C20      C      0.106820000000     0.604610000000     0.504690000000     0.505565   
C21      C      0.103930000000     0.408120000000     0.508570000000     0.502351   
C22      C      0.907610000000     0.409770000000     0.497540000000     0.50376    
C23      C      0.908800000000     0.506290000000     0.606210000000     0.494443   
C24      C      0.106010000000     0.495520000000     0.604410000000     0.505522   
C25      C      0.610810000000     0.007420000000     0.414720000000     0.500979   
C26      C      0.414700000000     0.010830000000     0.403370000000     0.501755   
C27      C      0.521160000000     0.909280000000     0.409950000000     0.502944   
C28      C      0.509410000000     0.105520000000     0.408280000000     0.503952   
C29      C      0.404040000000     0.004590000000     0.600470000000     0.489614   
C30      C      0.600990000000     0.014390000000     0.610570000000     0.503206   
C31      C      0.410370000000     0.908870000000     0.503520000000     0.494179   
C32      C      0.408660000000     0.106200000000     0.493880000000     0.502802   
C33      C      0.604000000000     0.107920000000     0.516810000000     0.503178   
C34      C      0.607770000000     0.911600000000     0.504420000000     0.506008   
C35      C      0.503420000000     0.911110000000     0.606530000000     0.49547    
C36      C      0.509190000000     0.108480000000     0.604560000000     0.504566   
C37      C      0.407210000000     0.411840000000     0.998930000000     0.514612   
C38      C      0.603480000000     0.407400000000     0.009340000000     0.500052   
C39      C      0.496950000000     0.412040000000     0.906990000000     0.50484    
C40      C      0.507140000000     0.407500000000     0.103010000000     0.503673   
C41      C      0.606670000000     0.604830000000     0.005740000000     0.493162   
C42      C      0.409660000000     0.607370000000     0.020140000000     0.506053   
C43      C      0.604820000000     0.513970000000     0.909340000000     0.493809   
C44      C      0.604630000000     0.495250000000     0.105910000000     0.504493   
C45      C      0.408630000000     0.509030000000     0.105850000000     0.50251    
C46      C      0.407400000000     0.507690000000     0.909570000000     0.504304   
C47      C      0.507840000000     0.609130000000     0.912030000000     0.496392   
C48      C      0.501800000000     0.603980000000     0.109180000000     0.502895   
C49      C      0.502340000000     0.207490000000     0.355830000000    -0.0363989  
C50      C      0.514710000000     0.303680000000     0.151930000000    -0.0364634  
C51      C      0.498830000000     0.388690000000     0.175530000000     0.00979747 
C52      C      0.500070000000     0.333960000000     0.119190000000     0.00917238 
C53      C      0.469550000000     0.265930000000     0.240770000000    -0.0550424  
C54      C      0.548190000000     0.242890000000     0.266400000000    -0.0550424  
C55      C      0.504010000000     0.284200000000     0.222720000000     0.060562   
C56      C      0.513740000000     0.355530000000     0.205020000000    -0.0365039  
C57      C      0.513730000000     0.224820000000     0.284650000000     0.0606342  
C58      C      0.504610000000     0.153920000000     0.304470000000    -0.0364185  
C59      C      0.474230000000     0.236400000000     0.271470000000    -0.0571224  
C60      C      0.519410000000     0.121930000000     0.335320000000     0.00966471 
C61      C      0.516760000000     0.178460000000     0.389730000000     0.00914022 
C62      C      0.543520000000     0.272370000000     0.235640000000    -0.0570517  
C63      C      0.509010000000     0.705660000000     0.160520000000    -0.0360826  
C64      C      0.516390000000     0.806190000000     0.362020000000    -0.036002   
C65      C      0.535960000000     0.890170000000     0.337880000000     0.00868579 
C66      C      0.533890000000     0.836090000000     0.393740000000     0.00788442 
C67      C      0.553690000000     0.763890000000     0.271830000000    -0.0546188  
C68      C      0.472320000000     0.745860000000     0.251270000000    -0.0544615  
C69      C      0.521770000000     0.785510000000     0.290930000000     0.0604236  
C70      C      0.518540000000     0.857900000000     0.308410000000    -0.0364344  
C71      C      0.504240000000     0.724310000000     0.232110000000     0.0602444  
C72      C      0.508200000000     0.652400000000     0.212510000000    -0.036523   
C73      C      0.545150000000     0.733570000000     0.242640000000    -0.0566421  
C74      C      0.490630000000     0.620770000000     0.182400000000     0.00894915 
C75      C      0.491200000000     0.676700000000     0.128150000000     0.00811505 
C76      C      0.480860000000     0.776210000000     0.280430000000    -0.0567152  
C77      C      0.498120000000     0.808720000000     0.659060000000    -0.035851   
C78      C      0.513700000000     0.713240000000     0.863080000000    -0.0358398  
C79      C      0.499950000000     0.627840000000     0.839490000000     0.00883201 
C80      C      0.500270000000     0.682590000000     0.895980000000     0.00780326 
C81      C      0.540540000000     0.746090000000     0.779670000000    -0.0567757  
C82      C      0.469810000000     0.778470000000     0.743230000000    -0.0567843  
C83      C      0.501570000000     0.732400000000     0.792400000000     0.0611309  
C84      C      0.513730000000     0.661460000000     0.809980000000    -0.0360325  
C85      C      0.508780000000     0.792160000000     0.730500000000     0.0611044  
C86      C      0.495210000000     0.862250000000     0.710290000000    -0.0359036  
C87      C      0.543960000000     0.775800000000     0.748980000000    -0.0545562  
C88      C      0.508840000000     0.895240000000     0.679960000000     0.00847133 
C89      C      0.511800000000     0.838500000000     0.625510000000     0.00813343 
C90      C      0.466390000000     0.748810000000     0.773970000000    -0.0545932  
C91      C      0.497500000000     0.310480000000     0.855570000000    -0.036651   
C92      C      0.505320000000     0.211820000000     0.653210000000    -0.0368001  
C93      C      0.518060000000     0.126580000000     0.677600000000     0.00789345 
C94      C      0.522190000000     0.181140000000     0.621950000000     0.0100411  
C95      C      0.541880000000     0.250400000000     0.745290000000    -0.0545982  
C96      C      0.461210000000     0.273900000000     0.762950000000    -0.0548059  
C97      C      0.509280000000     0.231470000000     0.724610000000     0.0605359  
C98      C      0.501440000000     0.159810000000     0.706310000000    -0.0360169  
C99      C      0.493800000000     0.292730000000     0.783730000000     0.0606436  
C100     C      0.501750000000     0.363960000000     0.803850000000    -0.0360944  
C101     C      0.534350000000     0.280780000000     0.774630000000    -0.0567879  
C102     C      0.485410000000     0.396440000000     0.833620000000     0.00794773 
C103     C      0.480810000000     0.340460000000     0.887560000000     0.00975118 
C104     C      0.468740000000     0.243510000000     0.733610000000    -0.05676    
C105     C      0.652880000000     0.210740000000     0.509770000000    -0.0367326  
C106     C      0.856580000000     0.308060000000     0.501170000000    -0.0365444  
C107     C      0.834570000000     0.393290000000     0.484900000000     0.00779961 
C108     C      0.888790000000     0.337450000000     0.483660000000     0.00932713 
C109     C      0.764390000000     0.269520000000     0.465570000000    -0.0548551  
C110     C      0.744680000000     0.250890000000     0.546980000000    -0.0546282  
C111     C      0.784680000000     0.290020000000     0.497460000000     0.0605185  
C112     C      0.804650000000     0.361540000000     0.502310000000    -0.0359881  
C113     C      0.724350000000     0.230450000000     0.515090000000     0.0603807  
C114     C      0.705950000000     0.158490000000     0.511970000000    -0.0367681  
C115     C      0.734510000000     0.239920000000     0.474160000000    -0.0567096  
C116     C      0.676370000000     0.126700000000     0.529830000000     0.00828903 
C117     C      0.620780000000     0.181270000000     0.527370000000     0.0082909  
C118     C      0.774650000000     0.280400000000     0.538390000000    -0.0567934  
C119     C      0.807790000000     0.658330000000     0.510070000000    -0.0357966  
C120     C      0.710780000000     0.862370000000     0.509670000000    -0.0368576  
C121     C      0.626170000000     0.839140000000     0.491940000000     0.0086746  
C122     C      0.680890000000     0.894790000000     0.493460000000     0.00980381 
C123     C      0.740530000000     0.779710000000     0.542880000000    -0.0567118  
C124     C      0.779590000000     0.741420000000     0.476680000000    -0.0566732  
C125     C      0.730200000000     0.791010000000     0.502460000000     0.0607498  
C126     C      0.658510000000     0.809360000000     0.508350000000    -0.0362244  
C127     C      0.789840000000     0.730040000000     0.517090000000     0.0607145  
C128     C      0.861190000000     0.710210000000     0.511030000000    -0.0357435  
C129     C      0.770130000000     0.749470000000     0.549980000000    -0.054524   
C130     C      0.892930000000     0.679770000000     0.527430000000     0.00738555 
C131     C      0.836980000000     0.625350000000     0.526360000000     0.00750547 
C132     C      0.749990000000     0.771660000000     0.469580000000    -0.0545127  
C133     C      0.206260000000     0.357340000000     0.501450000000    -0.0368382  
C134     C      0.305640000000     0.154640000000     0.495700000000    -0.0358546  
C135     C      0.390370000000     0.178610000000     0.479770000000     0.0091778  
C136     C      0.336030000000     0.122870000000     0.479120000000     0.00742472 
C137     C      0.274970000000     0.236110000000     0.531050000000    -0.0568878  
C138     C      0.235640000000     0.275530000000     0.465680000000    -0.0568455  
C139     C      0.285760000000     0.226060000000     0.490430000000     0.0602908  
C140     C      0.357670000000     0.208010000000     0.496340000000    -0.0364674  
C141     C      0.224890000000     0.285610000000     0.506310000000     0.0601686  
C142     C      0.153320000000     0.305100000000     0.500060000000    -0.0366676  
C143     C      0.244780000000     0.265640000000     0.538780000000    -0.0547291  
C144     C      0.121070000000     0.334710000000     0.517140000000     0.00837552 
C145     C      0.176710000000     0.389530000000     0.518660000000     0.00873609 
C146     C      0.265820000000     0.245980000000     0.457950000000    -0.0551177  
C147     C      0.158300000000     0.707280000000     0.496580000000    -0.0359755  
C148     C      0.360870000000     0.805340000000     0.508720000000    -0.0357804  
C149     C      0.337840000000     0.890530000000     0.493010000000     0.0076897  
C150     C      0.393870000000     0.835600000000     0.494720000000     0.00796682 
C151     C      0.277560000000     0.773390000000     0.536530000000    -0.056913   
C152     C      0.242080000000     0.737810000000     0.466890000000    -0.0568912  
C153     C      0.290200000000     0.785990000000     0.497190000000     0.0609289  
C154     C      0.307890000000     0.857370000000     0.507230000000    -0.0356303  
C155     C      0.229570000000     0.725090000000     0.506230000000     0.0608953  
C156     C      0.210160000000     0.654290000000     0.494510000000    -0.0365662  
C157     C      0.247510000000     0.743120000000     0.540860000000    -0.0546455  
C158     C      0.180280000000     0.621240000000     0.509150000000     0.0102347  
C159     C      0.125250000000     0.677500000000     0.511430000000     0.00864844 
C160     C      0.272220000000     0.768000000000     0.462550000000    -0.0547037  
C161     C      0.805120000000     0.493840000000     0.358910000000    -0.0358091  
C162     C      0.707040000000     0.495480000000     0.155690000000    -0.0360219  
C163     C      0.622010000000     0.478580000000     0.177820000000     0.0097925  
C164     C      0.677090000000     0.480350000000     0.122860000000     0.00779259 
C165     C      0.736580000000     0.527530000000     0.238510000000    -0.0567105  
C166     C      0.775090000000     0.460600000000     0.276190000000    -0.0570106  
C167     C      0.725800000000     0.487260000000     0.226970000000     0.0604602  
C168     C      0.654260000000     0.493910000000     0.208250000000    -0.0367143  
C169     C      0.785980000000     0.500890000000     0.287560000000     0.0608056  
C170     C      0.857500000000     0.493580000000     0.306390000000    -0.0362695  
C171     C      0.766460000000     0.534140000000     0.268530000000    -0.0547408  
C172     C      0.890010000000     0.510600000000     0.335600000000     0.00942698 
C173     C      0.834590000000     0.510850000000     0.391240000000     0.00796847 
C174     C      0.745240000000     0.453990000000     0.246090000000    -0.0545772  
C175     C      0.154390000000     0.513290000000     0.306050000000    -0.0368194  
C176     C      0.358150000000     0.517420000000     0.208740000000    -0.0364251  
C177     C      0.335340000000     0.503290000000     0.123310000000     0.00923935 
C178     C      0.390720000000     0.501560000000     0.178900000000     0.00899892 
C179     C      0.275430000000     0.549570000000     0.239500000000    -0.0570564  
C180     C      0.237040000000     0.481490000000     0.275190000000    -0.0568891  
C181     C      0.286650000000     0.509650000000     0.227210000000     0.0604759  
C182     C      0.305870000000     0.519180000000     0.156140000000    -0.0364344  
C183     C      0.225800000000     0.521400000000     0.287500000000     0.0602159  
C184     C      0.206970000000     0.511860000000     0.358620000000    -0.0369102  
C185     C      0.245230000000     0.555250000000     0.269420000000    -0.0547115  
C186     C      0.177040000000     0.526670000000     0.391550000000     0.0090723  
C187     C      0.121770000000     0.528040000000     0.336420000000     0.00863169 
C188     C      0.267220000000     0.475810000000     0.245280000000    -0.0552857  
C189     C      0.155770000000     0.495860000000     0.706740000000    -0.03627    
C190     C      0.357730000000     0.496520000000     0.806630000000    -0.0359075  
C191     C      0.334020000000     0.511800000000     0.891640000000     0.00904034 
C192     C      0.389700000000     0.513680000000     0.836370000000     0.00834412 
C193     C      0.267320000000     0.535850000000     0.767590000000    -0.0545667  
C194     C      0.246250000000     0.455610000000     0.745360000000    -0.0545136  
C195     C      0.286400000000     0.502690000000     0.787220000000     0.0607315  
C196     C      0.305040000000     0.494860000000     0.858810000000    -0.0361719  
C197     C      0.227090000000     0.488800000000     0.725790000000     0.0605393  
C198     C      0.208530000000     0.496110000000     0.654170000000    -0.036779   
C199     C      0.237920000000     0.529120000000     0.737110000000    -0.0567035  
C200     C      0.178450000000     0.480630000000     0.621580000000     0.00982185 
C201     C      0.123400000000     0.480210000000     0.676600000000     0.00849767 
C202     C      0.275710000000     0.462360000000     0.775810000000    -0.0568477  
C203     C      0.806290000000     0.515630000000     0.656920000000    -0.0358689  
C204     C      0.707530000000     0.510240000000     0.859300000000    -0.0357894  
C205     C      0.622520000000     0.527170000000     0.836910000000     0.00764245 
C206     C      0.677680000000     0.525460000000     0.892140000000     0.00765408 
C207     C      0.737460000000     0.479230000000     0.776090000000    -0.0567193  
C208     C      0.776530000000     0.546830000000     0.740210000000    -0.0567533  
C209     C      0.726620000000     0.519300000000     0.788270000000     0.0607944  
C210     C      0.655010000000     0.511910000000     0.806670000000    -0.0357741  
C211     C      0.787350000000     0.506760000000     0.728030000000     0.0608126  
C212     C      0.858900000000     0.514090000000     0.709250000000    -0.0355986  
C213     C      0.767590000000     0.473170000000     0.746200000000    -0.05456    
C214     C      0.891230000000     0.498000000000     0.679280000000     0.00742492 
C215     C      0.835630000000     0.499570000000     0.624040000000     0.00779688 
C216     C      0.746390000000     0.552900000000     0.770120000000    -0.0546202  
C217     C      0.862170000000     0.804320000000     0.005140000000    -0.0418451  
C218     C      0.658850000000     0.706670000000     0.011000000000    -0.047323   
C219     C      0.679660000000     0.621200000000     0.994080000000     0.0253204  
C220     C      0.625420000000     0.677520000000     0.995660000000     0.0235752  
C221     C      0.748680000000     0.743930000000     0.968490000000    -0.0482157  
C222     C      0.772980000000     0.764700000000     0.048120000000    -0.0548012  
C223     C      0.730290000000     0.724350000000     0.002050000000     0.0514397  
C224     C      0.710440000000     0.653100000000     0.009500000000    -0.0533572  
C225     C      0.791280000000     0.784360000000     0.014580000000     0.0560688  
C226     C      0.809000000000     0.856180000000     0.007930000000    -0.0418732  
C227     C      0.778930000000     0.773730000000     0.974560000000    -0.052634   
C228     C      0.838730000000     0.888750000000     0.023930000000     0.00901818 
C229     C      0.894840000000     0.834150000000     0.020890000000     0.00866303 
C230     C      0.742710000000     0.734920000000     0.042060000000    -0.0544711  
C231     C      0.805170000000     0.153330000000     0.022090000000    -0.0424472  
C232     C      0.705720000000     0.356060000000     0.021240000000    -0.0341433  
C233     C      0.620390000000     0.333700000000     0.005460000000     0.00268518 
C234     C      0.676530000000     0.388600000000     0.004100000000     0.00143968 
C235     C      0.743350000000     0.264860000000     0.981750000000    -0.0497177  
C236     C      0.765900000000     0.244030000000     0.061860000000    -0.0538379  
C237     C      0.724120000000     0.284380000000     0.014870000000     0.055625   
C238     C      0.652730000000     0.304140000000     0.022460000000    -0.0345779  
C239     C      0.785240000000     0.224600000000     0.028730000000     0.0549952  
C240     C      0.857020000000     0.206860000000     0.020930000000    -0.0429013  
C241     C      0.773650000000     0.235210000000     0.988460000000    -0.0516472  
C242     C      0.890200000000     0.177370000000     0.036310000000     0.0107289  
C243     C      0.836030000000     0.121430000000     0.037530000000     0.00933512 
C244     C      0.735570000000     0.273680000000     0.055140000000    -0.0564234  
C245     C      0.159770000000     0.809700000000     0.018560000000    -0.0342218  
C246     C      0.361790000000     0.710410000000     0.020090000000    -0.0425934  
C247     C      0.337850000000     0.625700000000     0.036420000000     0.0114774  
C248     C      0.393720000000     0.679890000000     0.035890000000     0.0100953  
C249     C      0.279870000000     0.740990000000     0.986430000000    -0.0517642  
C250     C      0.242250000000     0.780930000000     0.052480000000    -0.0564252  
C251     C      0.290760000000     0.730440000000     0.026890000000     0.0554402  
C252     C      0.308200000000     0.658500000000     0.020700000000    -0.043062   
C253     C      0.231250000000     0.791330000000     0.012020000000     0.055979   
C254     C      0.211670000000     0.862850000000     0.018020000000    -0.034539   
C255     C      0.250320000000     0.771200000000     0.979210000000    -0.0498408  
C256     C      0.181900000000     0.894700000000     0.000620000000     0.00288211 
C257     C      0.127150000000     0.838480000000     0.001090000000     0.00195674 
C258     C      0.271810000000     0.750690000000     0.059720000000    -0.0540088  
C259     C      0.303740000000     0.363000000000     0.999760000000    -0.0325372  
C260     C      0.205450000000     0.160390000000     0.986600000000    -0.0250992  
C261     C      0.120050000000     0.181420000000     0.003980000000    -0.00795366 
C262     C      0.176580000000     0.126630000000     0.001660000000    -0.00621297 
C263     C      0.234900000000     0.244880000000     0.958500000000    -0.0592189  
C264     C      0.272420000000     0.279080000000     0.027760000000    -0.0609833  
C265     C      0.223410000000     0.231490000000     0.997940000000     0.0699797  
C266     C      0.152250000000     0.211990000000     0.988790000000    -0.0188819  
C267     C      0.284080000000     0.292350000000     0.988330000000     0.0653352  
C268     C      0.355660000000     0.309720000000     0.997640000000    -0.0308628  
C269     C      0.265030000000     0.275080000000     0.953880000000    -0.0545789  
C270     C      0.388770000000     0.339940000000     0.983830000000     0.00832491 
C271     C      0.334290000000     0.395930000000     0.986120000000     0.0140677  
C272     C      0.242330000000     0.248880000000     0.032370000000    -0.0614068  
C273     C      0.646330000000     0.022350000000     0.716360000000    -0.0344806  
C274     C      0.847590000000     0.001900000000     0.814800000000    -0.0402362  
C275     C      0.829490000000     0.012560000000     0.901870000000     0.00283168 
C276     C      0.882250000000     0.014720000000     0.843550000000     0.00358543 
C277     C      0.762550000000     0.975870000000     0.785960000000    -0.0517553  
C278     C      0.729250000000     0.047700000000     0.752540000000    -0.0563638  
C279     C      0.776220000000     0.014450000000     0.799900000000     0.0555351  
C280     C      0.797770000000     0.000020000000     0.869620000000    -0.0400512  
C281     C      0.716040000000     0.009120000000     0.738170000000     0.0560396  
C282     C      0.701320000000     0.022820000000     0.666790000000    -0.0349818  
C283     C      0.732700000000     0.973380000000     0.755320000000    -0.0497327  
C284     C      0.673120000000     0.009700000000     0.631750000000     0.00402739 
C285     C      0.614500000000     0.009220000000     0.684510000000     0.00249931 
C286     C      0.759140000000     0.050200000000     0.783160000000    -0.053704   
C287     C      0.145550000000     0.011300000000     0.798790000000    -0.0423667  
C288     C      0.348970000000     0.011660000000     0.700520000000    -0.0470711  
C289     C      0.330240000000     0.994260000000     0.614780000000     0.0241362  
C290     C      0.382770000000     0.994940000000     0.672540000000     0.0229254  
C291     C      0.257930000000     0.972090000000     0.736960000000    -0.0482003  
C292     C      0.234760000000     0.052620000000     0.755780000000    -0.0547963  
C293     C      0.276850000000     0.004900000000     0.716540000000     0.0509937  
C294     C      0.298890000000     0.010880000000     0.645630000000    -0.0529962  
C295     C      0.216050000000     0.019830000000     0.776420000000     0.055444   
C296     C      0.200420000000     0.015950000000     0.848850000000    -0.0428122  
C297     C      0.227830000000     0.979340000000     0.766680000000    -0.0525748  
C298     C      0.171360000000     0.032520000000     0.881760000000     0.0107646  
C299     C      0.113800000000     0.027410000000     0.829530000000     0.00894878 
C300     C      0.264930000000     0.045370000000     0.726110000000    -0.0545901  
C301     C      0.369040000000     0.020140000000     0.298050000000    -0.0347853  
C302     C      0.167400000000     0.003380000000     0.199530000000    -0.0427807  
C303     C      0.185380000000     0.016600000000     0.112810000000     0.00448317 
C304     C      0.132790000000     0.017200000000     0.171170000000     0.0110011  
C305     C      0.252580000000     0.975890000000     0.227070000000    -0.0518485  
C306     C      0.285990000000     0.046350000000     0.263180000000    -0.0566948  
C307     C      0.238880000000     0.014990000000     0.214690000000     0.0550736  
C308     C      0.217170000000     0.003010000000     0.144550000000    -0.0410031  
C309     C      0.299350000000     0.007240000000     0.275890000000     0.0558817  
C310     C      0.314150000000     0.017610000000     0.347790000000    -0.0342326  
C311     C      0.282600000000     0.972200000000     0.257440000000    -0.0500282  
C312     C      0.342760000000     0.003400000000     0.382070000000     0.00204421 
C313     C      0.401100000000     0.006170000000     0.329320000000     0.0035255  
C314     C      0.255980000000     0.050050000000     0.232800000000    -0.0540917  
C315     C      0.666880000000     0.001580000000     0.314500000000    -0.0410566  
C316     C      0.869600000000     0.020570000000     0.217410000000    -0.0346569  
C317     C      0.843640000000     0.002890000000     0.133490000000     0.00251041 
C318     C      0.901940000000     0.006930000000     0.186240000000     0.00315506 
C319     C      0.786050000000     0.045820000000     0.251920000000    -0.0566175  
C320     C      0.752540000000     0.975050000000     0.287340000000    -0.0517497  
C321     C      0.799920000000     0.006830000000     0.239390000000     0.056013   
C322     C      0.814860000000     0.017050000000     0.167590000000    -0.0343526  
C323     C      0.738340000000     0.014030000000     0.299540000000     0.0551863  
C324     C      0.716520000000     0.002080000000     0.369550000000    -0.041033   
C325     C      0.755500000000     0.049240000000     0.281790000000    -0.0539178  
C326     C      0.684620000000     0.015600000000     0.401140000000     0.00479759 
C327     C      0.631990000000     0.015060000000     0.342750000000     0.00481743 
C328     C      0.783100000000     0.971630000000     0.257480000000    -0.0498663  
C329     C      0.013180000000     0.154270000000     0.804830000000    -0.047188   
C330     C      0.015070000000     0.355310000000     0.704260000000    -0.0425471  
C331     C      0.028290000000     0.333200000000     0.618610000000     0.0114776  
C332     C      0.030790000000     0.387680000000     0.674250000000     0.01045    
C333     C      0.981020000000     0.273590000000     0.734420000000    -0.0525872  
C334     C      0.047850000000     0.235370000000     0.772510000000    -0.0547324  
C335     C      0.021300000000     0.283830000000     0.722490000000     0.0560425  
C336     C      0.012930000000     0.303060000000     0.651180000000    -0.0430905  
C337     C      0.007580000000     0.225360000000     0.784610000000     0.052154   
C338     C      0.016260000000     0.207740000000     0.856280000000    -0.0474618  
C339     C      0.974370000000     0.244580000000     0.765250000000    -0.0483803  
C340     C      0.999670000000     0.179320000000     0.889740000000     0.0247828  
C341     C      0.996210000000     0.122960000000     0.835300000000     0.0239971  
C342     C      0.054510000000     0.264450000000     0.741700000000    -0.0548088  
C343     C      0.002560000000     0.805280000000     0.861740000000    -0.0517861  
C344     C      0.998700000000     0.705650000000     0.659860000000    -0.0194884  
C345     C      0.014710000000     0.620130000000     0.681470000000    -0.00675661 
C346     C      0.015050000000     0.676490000000     0.626970000000    -0.00624683 
C347     C      0.039900000000     0.743780000000     0.749470000000    -0.0498916  
C348     C      0.960080000000     0.765140000000     0.772760000000    -0.0591117  
C349     C      0.006450000000     0.723830000000     0.731250000000     0.0528542  
C350     C      0.998580000000     0.652390000000     0.711590000000    -0.0192792  
C351     C      0.993540000000     0.785110000000     0.790960000000     0.0686342  
C352     C      0.000320000000     0.857100000000     0.808400000000    -0.050022   
C353     C      0.033650000000     0.774190000000     0.779070000000    -0.0653004  
C354     C      0.984910000000     0.889900000000     0.838290000000     0.0149018  
C355     C      0.987220000000     0.835500000000     0.894200000000     0.0212771  
C356     C      0.966340000000     0.734760000000     0.743110000000    -0.0481329  
C357     C      0.025660000000     0.659940000000     0.308700000000    -0.0347557  
C358     C      0.026440000000     0.862400000000     0.209210000000    -0.0428406  
C359     C      0.038780000000     0.838450000000     0.123920000000     0.00896195 
C360     C      0.041830000000     0.894140000000     0.178180000000     0.0106907  
C361     C      0.992190000000     0.780610000000     0.240850000000    -0.0516054  
C362     C      0.059060000000     0.742310000000     0.278830000000    -0.0564078  
C363     C      0.032430000000     0.791060000000     0.228950000000     0.0550079  
C364     C      0.023670000000     0.809010000000     0.157300000000    -0.042288   
C365     C      0.018800000000     0.731600000000     0.290430000000     0.0556651  
C366     C      0.026260000000     0.711670000000     0.361810000000    -0.0341181  
C367     C      0.985590000000     0.751080000000     0.271290000000    -0.0496797  
C368     C      0.009250000000     0.681900000000     0.393980000000     0.0012001  
C369     C      0.008530000000     0.627180000000     0.337600000000     0.0033263  
C370     C      0.065660000000     0.771780000000     0.248300000000    -0.0537679  
C371     C      0.001320000000     0.158710000000     0.206880000000    -0.0420164  
C372     C      0.002690000000     0.363230000000     0.303510000000    -0.0531181  
C373     C      0.986550000000     0.339610000000     0.388260000000     0.023464   
C374     C      0.987460000000     0.395640000000     0.333930000000     0.0226257  
C375     C      0.034780000000     0.280850000000     0.272420000000    -0.065611   
C376     C      0.967570000000     0.241600000000     0.236080000000    -0.0480429  
C377     C      0.994620000000     0.291930000000     0.284010000000     0.0683412  
C378     C      0.002140000000     0.309960000000     0.355480000000    -0.0531437  
C379     C      0.007730000000     0.230610000000     0.224440000000     0.0522563  
C380     C      0.998870000000     0.210350000000     0.153570000000    -0.0203325  
C381     C      0.041120000000     0.250480000000     0.242820000000    -0.050409   
C382     C      0.015210000000     0.180620000000     0.121200000000    -0.00433849 
C383     C      0.017670000000     0.126000000000     0.177400000000     0.00932084 
C384     C      0.961220000000     0.272050000000     0.265620000000    -0.0594465  
Eu1      Eu     0.011570000000     0.008060000000     0.080130000000     3.46176    
Eu2      Eu     0.009200000000     0.934910000000     0.008110000000     3.00881    
Eu3      Eu     0.005700000000     0.080830000000     0.006550000000     3.4612     
Eu4      Eu     0.934710000000     0.006820000000     0.012180000000     3.02639    
Eu5      Eu     0.080290000000     0.008860000000     0.002460000000     3.46222    
Eu6      Eu     0.003400000000     0.007640000000     0.934520000000     3.0136     
Eu7      Eu     0.005880000000     0.509840000000     0.434500000000     3.47687    
Eu8      Eu     0.007770000000     0.580530000000     0.508910000000     3.01398    
Eu9      Eu     0.005550000000     0.434590000000     0.505810000000     3.47702    
Eu10     Eu     0.933660000000     0.508060000000     0.507570000000     3.0624     
Eu11     Eu     0.079620000000     0.507070000000     0.507230000000     3.52839    
Eu12     Eu     0.007340000000     0.505410000000     0.580280000000     3.05519    
Eu13     Eu     0.510960000000     0.007320000000     0.434670000000     3.48064    
Eu14     Eu     0.434570000000     0.007780000000     0.503320000000     2.99832    
Eu15     Eu     0.580190000000     0.008930000000     0.511630000000     3.49586    
Eu16     Eu     0.508610000000     0.935320000000     0.507740000000     3.07694    
Eu17     Eu     0.506080000000     0.081430000000     0.507130000000     3.50998    
Eu18     Eu     0.503800000000     0.009350000000     0.580220000000     3.0242     
Eu19     Eu     0.506060000000     0.435290000000     0.005020000000     3.4785     
Eu20     Eu     0.579700000000     0.506690000000     0.007610000000     3.00968    
Eu21     Eu     0.433870000000     0.509790000000     0.007370000000     3.49519    
Eu22     Eu     0.506260000000     0.509980000000     0.934650000000     3.07973    
Eu23     Eu     0.507280000000     0.506630000000     0.080430000000     3.5094     
Eu24     Eu     0.507700000000     0.581250000000     0.009990000000     3.04574    
H1       H      0.975000000000     0.969450000000     0.078010000000    -0.16926    
H2       H      0.069500000000     0.069210000000     0.062880000000     0.411113   
H3       H      0.965780000000     0.075310000000     0.971700000000    -0.165363   
H4       H      0.073950000000     0.971240000000     0.965380000000    -0.173313   
H5       H      0.969010000000     0.547400000000     0.440730000000    -0.18133    
H6       H      0.065520000000     0.448630000000     0.445410000000     0.406979   
H7       H      0.968290000000     0.438480000000     0.543780000000    -0.166931   
H8       H      0.075500000000     0.543290000000     0.545920000000    -0.182487   
H9       H      0.473940000000     0.969220000000     0.437690000000    -0.172357   
H10      H      0.569620000000     0.068710000000     0.450910000000     0.41248    
H11      H      0.574060000000     0.971270000000     0.548740000000    -0.172008   
H12      H      0.466650000000     0.076680000000     0.542680000000    -0.180587   
H13      H      0.543320000000     0.440480000000     0.967430000000    -0.175673   
H14      H      0.445930000000     0.447510000000     0.065080000000     0.410504   
H15      H      0.438910000000     0.548720000000     0.971290000000    -0.168809   
H16      H      0.545650000000     0.543560000000     0.076860000000    -0.178966   
H17      H      0.570620000000     0.286080000000     0.222170000000     0.0394928  
H18      H      0.512660000000     0.239150000000     0.363620000000     0.0337458  
H19      H      0.516530000000     0.145360000000     0.273610000000     0.0334155  
H20      H      0.465440000000     0.393750000000     0.180580000000     0.0254478  
H21      H      0.549780000000     0.184440000000     0.396010000000     0.0254308  
H22      H      0.503980000000     0.272390000000     0.143270000000     0.0332349  
H23      H      0.502410000000     0.363190000000     0.236340000000     0.0338236  
H24      H      0.517020000000     0.327440000000     0.090290000000     0.033758   
H25      H      0.503930000000     0.092340000000     0.328130000000     0.0345916  
H26      H      0.578730000000     0.234150000000     0.276190000000     0.0426746  
H27      H      0.499420000000     0.185920000000     0.418170000000     0.0343526  
H28      H      0.439010000000     0.274820000000     0.231120000000     0.0424421  
H29      H      0.468150000000     0.207440000000     0.354760000000     0.0370572  
H30      H      0.514870000000     0.417800000000     0.183420000000     0.0349018  
H31      H      0.552960000000     0.117210000000     0.331080000000     0.0256624  
H32      H      0.548910000000     0.303370000000     0.152540000000     0.0368523  
H33      H      0.547930000000     0.355620000000     0.205780000000     0.0371771  
H34      H      0.447130000000     0.222750000000     0.285000000000     0.0393967  
H35      H      0.470430000000     0.153450000000     0.303170000000     0.0370759  
H36      H      0.466940000000     0.328380000000     0.113090000000     0.0251862  
H37      H      0.455610000000     0.792400000000     0.294710000000     0.0401702  
H38      H      0.499090000000     0.737520000000     0.153070000000     0.0342331  
H39      H      0.497490000000     0.644420000000     0.243950000000     0.0341718  
H40      H      0.569760000000     0.891960000000     0.333390000000     0.0331605  
H41      H      0.457660000000     0.682540000000     0.125560000000     0.0320698  
H42      H      0.526060000000     0.774520000000     0.370580000000     0.034254   
H43      H      0.529880000000     0.864830000000     0.276950000000     0.0346005  
H44      H      0.519540000000     0.829170000000     0.423890000000     0.0358781  
H45      H      0.504620000000     0.590410000000     0.189340000000     0.0341546  
H46      H      0.440720000000     0.739200000000     0.243400000000     0.0434618  
H47      H      0.505310000000     0.684510000000     0.098100000000     0.0354741  
H48      H      0.585300000000     0.770680000000     0.279580000000     0.0433916  
H49      H      0.543160000000     0.704530000000     0.159050000000     0.0373524  
H50      H      0.522820000000     0.920550000000     0.329520000000     0.0355302  
H51      H      0.457020000000     0.618060000000     0.187740000000     0.0328408  
H52      H      0.482240000000     0.807540000000     0.362990000000     0.037761   
H53      H      0.484420000000     0.860210000000     0.308180000000     0.0377305  
H54      H      0.570410000000     0.717540000000     0.228200000000     0.0396456  
H55      H      0.542330000000     0.650490000000     0.212100000000     0.0368922  
H56      H      0.567410000000     0.830370000000     0.396760000000     0.0319649  
H57      H      0.436250000000     0.738380000000     0.783370000000     0.0438291  
H58      H      0.510590000000     0.777730000000     0.651700000000     0.0341736  
H59      H      0.505410000000     0.871560000000     0.741540000000     0.0350269  
H60      H      0.466750000000     0.621650000000     0.834440000000     0.0333854  
H61      H      0.545190000000     0.834140000000     0.619880000000     0.0335034  
H62      H      0.502200000000     0.744230000000     0.871850000000     0.0349464  
H63      H      0.502460000000     0.653520000000     0.778720000000     0.0342909  
H64      H      0.517620000000     0.689350000000     0.924590000000     0.0356589  
H65      H      0.490670000000     0.923500000000     0.686160000000     0.0361952  
H66      H      0.442170000000     0.790630000000     0.729370000000     0.0398771  
H67      H      0.495470000000     0.830310000000     0.596670000000     0.034454   
H68      H      0.568190000000     0.733670000000     0.793280000000     0.0400497  
H69      H      0.463980000000     0.806630000000     0.659130000000     0.0366076  
H70      H      0.516950000000     0.599260000000     0.831650000000     0.0351694  
H71      H      0.541630000000     0.902760000000     0.685840000000     0.0341052  
H72      H      0.547860000000     0.714500000000     0.862130000000     0.0369952  
H73      H      0.547910000000     0.662400000000     0.809010000000     0.0369581  
H74      H      0.574100000000     0.786080000000     0.739430000000     0.0439151  
H75      H      0.461060000000     0.860400000000     0.710380000000     0.0370188  
H76      H      0.467170000000     0.687530000000     0.902740000000     0.0340135  
H77      H      0.443000000000     0.229390000000     0.718060000000     0.0395359  
H78      H      0.485150000000     0.279350000000     0.862500000000     0.0344608  
H79      H      0.492470000000     0.372770000000     0.772180000000     0.0341397  
H80      H      0.551260000000     0.122020000000     0.684140000000     0.0329539  
H81      H      0.446870000000     0.337100000000     0.889000000000     0.0322576  
H82      H      0.517360000000     0.242860000000     0.645430000000     0.0342307  
H83      H      0.510600000000     0.151950000000     0.738260000000     0.034129   
H84      H      0.509040000000     0.188820000000     0.591430000000     0.0346986  
H85      H      0.501300000000     0.425940000000     0.827050000000     0.0350725  
H86      H      0.429880000000     0.282730000000     0.769680000000     0.04328    
H87      H      0.493350000000     0.331550000000     0.918000000000     0.0359303  
H88      H      0.573210000000     0.241440000000     0.738680000000     0.0434614  
H89      H      0.531590000000     0.309220000000     0.858060000000     0.0376755  
H90      H      0.502060000000     0.097290000000     0.684790000000     0.0349255  
H91      H      0.452130000000     0.401100000000     0.827600000000     0.0324824  
H92      H      0.471220000000     0.212720000000     0.650800000000     0.0369495  
H93      H      0.467280000000     0.159930000000     0.704750000000     0.0369591  
H94      H      0.560090000000     0.294780000000     0.790290000000     0.0399555  
H95      H      0.535910000000     0.363650000000     0.805260000000     0.0373753  
H96      H      0.556030000000     0.185120000000     0.619860000000     0.0326577  
H97      H      0.789950000000     0.295660000000     0.563610000000     0.0399388  
H98      H      0.644710000000     0.242550000000     0.519310000000     0.034064   
H99      H      0.737460000000     0.151290000000     0.523070000000     0.0339584  
H100     H      0.829100000000     0.396210000000     0.451350000000     0.0323244  
H101     H      0.617450000000     0.187450000000     0.560760000000     0.0326359  
H102     H      0.863760000000     0.276460000000     0.490240000000     0.0344028  
H103     H      0.773060000000     0.369840000000     0.492240000000     0.03411    
H104     H      0.919090000000     0.329260000000     0.497030000000     0.0355536  
H105     H      0.684410000000     0.096190000000     0.516800000000     0.0322511  
H106     H      0.737300000000     0.243820000000     0.578590000000     0.0434216  
H107     H      0.590790000000     0.188120000000     0.512620000000     0.0327964  
H108     H      0.771860000000     0.276520000000     0.433960000000     0.0431369  
H109     H      0.651850000000     0.209260000000     0.475650000000     0.0346517  
H110     H      0.827520000000     0.423510000000     0.499110000000     0.0355692  
H111     H      0.681130000000     0.125050000000     0.563580000000     0.0331414  
H112     H      0.858600000000     0.308240000000     0.535280000000     0.0375927  
H113     H      0.805630000000     0.362840000000     0.536440000000     0.0374612  
H114     H      0.719420000000     0.224440000000     0.448950000000     0.0389461  
H115     H      0.705860000000     0.156040000000     0.477890000000     0.0347298  
H116     H      0.890770000000     0.332660000000     0.449940000000     0.0324433  
H117     H      0.742310000000     0.780010000000     0.438350000000     0.0436994  
H118     H      0.776130000000     0.650770000000     0.520510000000     0.0341663  
H119     H      0.869460000000     0.741470000000     0.522140000000     0.0348085  
H120     H      0.623190000000     0.834570000000     0.458260000000     0.0325195  
H121     H      0.831610000000     0.621530000000     0.559840000000     0.0323773  
H122     H      0.742280000000     0.870660000000     0.499330000000     0.034904   
H123     H      0.650940000000     0.777960000000     0.497120000000     0.0343011  
H124     H      0.688000000000     0.924470000000     0.508770000000     0.0353752  
H125     H      0.923030000000     0.687100000000     0.513110000000     0.0366581  
H126     H      0.794370000000     0.726890000000     0.450730000000     0.0402359  
H127     H      0.829110000000     0.595750000000     0.511260000000     0.0355635  
H128     H      0.725650000000     0.794140000000     0.568830000000     0.0400708  
H129     H      0.808150000000     0.657750000000     0.475900000000     0.0376607  
H130     H      0.596180000000     0.831070000000     0.506090000000     0.0353712  
H131     H      0.896190000000     0.684400000000     0.561080000000     0.0328827  
H132     H      0.710340000000     0.862810000000     0.543830000000     0.0376003  
H133     H      0.657170000000     0.809050000000     0.542500000000     0.037458   
H134     H      0.777720000000     0.741020000000     0.581210000000     0.0434208  
H135     H      0.862410000000     0.710390000000     0.476880000000     0.0380105  
H136     H      0.686290000000     0.898950000000     0.460030000000     0.033635   
H137     H      0.273800000000     0.238590000000     0.426560000000     0.0425697  
H138     H      0.237780000000     0.364790000000     0.512370000000     0.0339522  
H139     H      0.145180000000     0.273400000000     0.509960000000     0.0335575  
H140     H      0.393470000000     0.183560000000     0.446160000000     0.0323524  
H141     H      0.181910000000     0.392310000000     0.552270000000     0.0331786  
H142     H      0.274370000000     0.146410000000     0.484650000000     0.0336213  
H143     H      0.365220000000     0.239640000000     0.485760000000     0.0339599  
H144     H      0.328520000000     0.092620000000     0.493050000000     0.0351756  
H145     H      0.091260000000     0.327890000000     0.501990000000     0.0314713  
H146     H      0.220810000000     0.290540000000     0.440030000000     0.0382192  
H147     H      0.184420000000     0.419660000000     0.504590000000     0.0319817  
H148     H      0.289890000000     0.221210000000     0.556710000000     0.0395655  
H149     H      0.206150000000     0.359100000000     0.467320000000     0.0341139  
H150     H      0.420240000000     0.186700000000     0.494160000000     0.034786   
H151     H      0.117230000000     0.328650000000     0.550500000000     0.0330889  
H152     H      0.305560000000     0.153260000000     0.529850000000     0.0370632  
H153     H      0.358620000000     0.207710000000     0.530500000000     0.0371186  
H154     H      0.236870000000     0.273110000000     0.570170000000     0.0433889  
H155     H      0.152480000000     0.306090000000     0.465910000000     0.0338019  
H156     H      0.331560000000     0.120040000000     0.445410000000     0.0322502  
H157     H      0.281590000000     0.777530000000     0.432130000000     0.043613   
H158     H      0.150680000000     0.738500000000     0.508280000000     0.034148   
H159     H      0.241620000000     0.645610000000     0.504670000000     0.034185   
H160     H      0.333520000000     0.895640000000     0.459540000000     0.0337283  
H161     H      0.120020000000     0.682620000000     0.544770000000     0.0325592  
H162     H      0.369630000000     0.774090000000     0.497920000000     0.0341586  
H163     H      0.276790000000     0.865190000000     0.495390000000     0.034551   
H164     H      0.422600000000     0.828620000000     0.511790000000     0.0350836  
H165     H      0.186530000000     0.592650000000     0.491530000000     0.0350216  
H166     H      0.228550000000     0.724460000000     0.439660000000     0.0397331  
H167     H      0.096110000000     0.685060000000     0.495310000000     0.0348632  
H168     H      0.290850000000     0.786950000000     0.563770000000     0.0398596  
H169     H      0.158010000000     0.708430000000     0.462420000000     0.0367546  
H170     H      0.329790000000     0.919660000000     0.508920000000     0.0363059  
H171     H      0.186600000000     0.614480000000     0.542000000000     0.0314417  
H172     H      0.359850000000     0.804860000000     0.542880000000     0.036821   
H173     H      0.306510000000     0.857290000000     0.541390000000     0.0371602  
H174     H      0.238050000000     0.733680000000     0.571290000000     0.043582   
H175     H      0.209980000000     0.655320000000     0.460350000000     0.0368296  
H176     H      0.400180000000     0.830400000000     0.461590000000     0.0330505  
H177     H      0.737200000000     0.422850000000     0.237590000000     0.0430721  
H178     H      0.773480000000     0.504140000000     0.366730000000     0.0341201  
H179     H      0.865240000000     0.503650000000     0.274680000000     0.0345276  
H180     H      0.618830000000     0.444740000000     0.181290000000     0.0326287  
H181     H      0.828130000000     0.544110000000     0.395600000000     0.0326583  
H182     H      0.738410000000     0.484700000000     0.147440000000     0.0340541  
H183     H      0.646270000000     0.482020000000     0.239260000000     0.0340783  
H184     H      0.684960000000     0.495690000000     0.093420000000     0.0351703  
H185     H      0.919540000000     0.494800000000     0.328940000000     0.0365415  
H186     H      0.789680000000     0.434400000000     0.290490000000     0.0399645  
H187     H      0.828040000000     0.495190000000     0.420850000000     0.0352524  
H188     H      0.721960000000     0.553780000000     0.224320000000     0.0396406  
H189     H      0.805700000000     0.459630000000     0.359910000000     0.0369631  
H190     H      0.592040000000     0.492660000000     0.186100000000     0.0348011  
H191     H      0.894480000000     0.543810000000     0.328960000000     0.0318992  
H192     H      0.707180000000     0.529700000000     0.155760000000     0.0371933  
H193     H      0.653320000000     0.528100000000     0.209350000000     0.0371353  
H194     H      0.774510000000     0.565280000000     0.277020000000     0.0435905  
H195     H      0.858370000000     0.459380000000     0.307180000000     0.0373357  
H196     H      0.681620000000     0.446760000000     0.118530000000     0.0323352  
H197     H      0.275540000000     0.444950000000     0.236090000000     0.0422224  
H198     H      0.146340000000     0.525190000000     0.275050000000     0.0334049  
H199     H      0.238320000000     0.522610000000     0.366960000000     0.0338515  
H200     H      0.328950000000     0.470170000000     0.117890000000     0.0252306  
H201     H      0.117540000000     0.561720000000     0.332530000000     0.033237   
H202     H      0.365850000000     0.506080000000     0.240030000000     0.0338526  
H203     H      0.274220000000     0.509240000000     0.147900000000     0.0332999  
H204     H      0.420260000000     0.517100000000     0.186150000000     0.0348469  
H205     H      0.184750000000     0.510760000000     0.420730000000     0.0319378  
H206     H      0.222550000000     0.454810000000     0.288710000000     0.0381356  
H207     H      0.092190000000     0.512990000000     0.328420000000     0.0311984  
H208     H      0.289970000000     0.576220000000     0.225980000000     0.0398584  
H209     H      0.153910000000     0.479100000000     0.304800000000     0.0338063  
H210     H      0.328680000000     0.519890000000     0.094240000000     0.0343666  
H211     H      0.181810000000     0.560140000000     0.396500000000     0.0332814  
H212     H      0.359040000000     0.551630000000     0.209330000000     0.0373516  
H213     H      0.306530000000     0.553400000000     0.156350000000     0.0371176  
H214     H      0.236920000000     0.586110000000     0.278630000000     0.0431047  
H215     H      0.207200000000     0.477640000000     0.358190000000     0.034139   
H216     H      0.395200000000     0.468110000000     0.184230000000     0.0258558  
H217     H      0.290090000000     0.436210000000     0.790420000000     0.0400501  
H218     H      0.147670000000     0.484610000000     0.737960000000     0.0342527  
H219     H      0.239820000000     0.484970000000     0.646130000000     0.0343384  
H220     H      0.326970000000     0.544860000000     0.896530000000     0.0318774  
H221     H      0.120080000000     0.446470000000     0.680710000000     0.0318667  
H222     H      0.365520000000     0.507300000000     0.775160000000     0.0342524  
H223     H      0.273170000000     0.504460000000     0.866590000000     0.0344805  
H224     H      0.419620000000     0.498690000000     0.829530000000     0.0356384  
H225     H      0.186350000000     0.495470000000     0.591890000000     0.0346511  
H226     H      0.238230000000     0.424440000000     0.736960000000     0.0435226  
H227     H      0.093520000000     0.494580000000     0.684670000000     0.0351881  
H228     H      0.275320000000     0.567030000000     0.776000000000     0.0436745  
H229     H      0.155080000000     0.530070000000     0.707190000000     0.0375508  
H230     H      0.327550000000     0.495520000000     0.920930000000     0.0361928  
H231     H      0.182770000000     0.446960000000     0.617780000000     0.0324331  
H232     H      0.359260000000     0.462320000000     0.806820000000     0.0371689  
H233     H      0.306220000000     0.460660000000     0.859250000000     0.0372642  
H234     H      0.223600000000     0.555300000000     0.722490000000     0.0400062  
H235     H      0.208950000000     0.530320000000     0.653720000000     0.0373929  
H236     H      0.393430000000     0.547120000000     0.830440000000     0.0324227  
H237     H      0.738360000000     0.583870000000     0.779210000000     0.043591   
H238     H      0.774620000000     0.505590000000     0.648890000000     0.0341673  
H239     H      0.866760000000     0.502880000000     0.740550000000     0.0347404  
H240     H      0.618710000000     0.560880000000     0.832880000000     0.0327662  
H241     H      0.829390000000     0.466360000000     0.619010000000     0.0328716  
H242     H      0.738960000000     0.520770000000     0.867640000000     0.0348833  
H243     H      0.647130000000     0.523690000000     0.775590000000     0.0341337  
H244     H      0.685200000000     0.509610000000     0.921400000000     0.0367905  
H245     H      0.920920000000     0.513250000000     0.686470000000     0.0358721  
H246     H      0.791320000000     0.573300000000     0.726610000000     0.0398637  
H247     H      0.828680000000     0.515840000000     0.594860000000     0.0352969  
H248     H      0.722680000000     0.452740000000     0.789660000000     0.0400026  
H249     H      0.806920000000     0.549840000000     0.656910000000     0.0369633  
H250     H      0.592800000000     0.512420000000     0.828910000000     0.0352502  
H251     H      0.895390000000     0.464500000000     0.684530000000     0.0334553  
H252     H      0.707470000000     0.476020000000     0.859030000000     0.0377984  
H253     H      0.654220000000     0.477710000000     0.805620000000     0.0372816  
H254     H      0.775610000000     0.442200000000     0.737100000000     0.043617   
H255     H      0.859900000000     0.548300000000     0.709660000000     0.0370685  
H256     H      0.682750000000     0.558900000000     0.896940000000     0.0329057  
H257     H      0.728950000000     0.720290000000     0.068510000000     0.0388738  
H258     H      0.870850000000     0.772710000000     0.014860000000     0.0349773  
H259     H      0.777750000000     0.863460000000     0.019690000000     0.0350809  
H260     H      0.683940000000     0.617190000000     0.960460000000     0.0296553  
H261     H      0.900310000000     0.827930000000     0.053990000000     0.0333492  
H262     H      0.651180000000     0.738310000000     0.000540000000     0.0353518  
H263     H      0.741450000000     0.644610000000     0.997920000000     0.0416538  
H264     H      0.596300000000     0.685430000000     0.011620000000     0.0293928  
H265     H      0.830580000000     0.918580000000     0.009440000000     0.034975   
H266     H      0.782140000000     0.772660000000     0.079050000000     0.0436354  
H267     H      0.923970000000     0.827710000000     0.004300000000     0.034835   
H268     H      0.739380000000     0.736110000000     0.937570000000     0.0426943  
H269     H      0.861720000000     0.805160000000     0.970970000000     0.0416729  
H270     H      0.686930000000     0.591340000000     0.008950000000     0.0290202  
H271     H      0.834210000000     0.892160000000     0.057580000000     0.033053   
H272     H      0.659030000000     0.706540000000     0.045180000000     0.0393922  
H273     H      0.711260000000     0.652280000000     0.043660000000     0.040371   
H274     H      0.792540000000     0.788540000000     0.948130000000     0.0397537  
H275     H      0.808080000000     0.857560000000     0.973790000000     0.0418834  
H276     H      0.620610000000     0.682940000000     0.962310000000     0.0307198  
H277     H      0.721210000000     0.288340000000     0.081260000000     0.0394422  
H278     H      0.774190000000     0.144860000000     0.033770000000     0.0344452  
H279     H      0.864730000000     0.238370000000     0.031740000000     0.0351209  
H280     H      0.615520000000     0.326770000000     0.972410000000     0.0360626  
H281     H      0.832320000000     0.118060000000     0.071280000000     0.0322684  
H282     H      0.737380000000     0.363420000000     0.010650000000     0.0327984  
H283     H      0.644510000000     0.272400000000     0.012740000000     0.0324018  
H284     H      0.683680000000     0.418340000000     0.019310000000     0.0362892  
H285     H      0.919660000000     0.185710000000     0.021260000000     0.0345917  
H286     H      0.774490000000     0.236190000000     0.092990000000     0.0427666  
H287     H      0.828320000000     0.091380000000     0.023290000000     0.033734   
H288     H      0.734880000000     0.272800000000     0.950620000000     0.043503   
H289     H      0.804290000000     0.152420000000     0.987940000000     0.0421139  
H290     H      0.590910000000     0.327640000000     0.021570000000     0.0360392  
H291     H      0.894170000000     0.181940000000     0.069890000000     0.0327717  
H292     H      0.705400000000     0.357470000000     0.055390000000     0.0365979  
H293     H      0.652170000000     0.305210000000     0.056610000000     0.0365882  
H294     H      0.788070000000     0.220690000000     0.962310000000     0.0397197  
H295     H      0.857160000000     0.207010000000     0.986760000000     0.0423667  
H296     H      0.682760000000     0.392470000000     0.970780000000     0.0374544  
H297     H      0.279920000000     0.742880000000     0.090970000000     0.0430907  
H298     H      0.152360000000     0.777800000000     0.008710000000     0.0323682  
H299     H      0.243250000000     0.870870000000     0.007710000000     0.0329814  
H300     H      0.333860000000     0.622610000000     0.070170000000     0.0321942  
H301     H      0.123270000000     0.831790000000     0.967850000000     0.0368933  
H302     H      0.370390000000     0.741650000000     0.031030000000     0.0349964  
H303     H      0.276850000000     0.651060000000     0.032110000000     0.0345793  
H304     H      0.423690000000     0.687410000000     0.021440000000     0.0342358  
H305     H      0.188280000000     0.924650000000     0.015740000000     0.0371385  
H306     H      0.227890000000     0.796030000000     0.078350000000     0.039637   
H307     H      0.097500000000     0.831380000000     0.016470000000     0.0361693  
H308     H      0.294080000000     0.725830000000     0.960520000000     0.0396612  
H309     H      0.158670000000     0.810800000000     0.052710000000     0.0367516  
H310     H      0.329260000000     0.595860000000     0.022250000000     0.0335876  
H311     H      0.188170000000     0.898530000000     0.967310000000     0.0364279  
H312     H      0.362380000000     0.710520000000     0.985920000000     0.0423626  
H313     H      0.307610000000     0.657550000000     0.986540000000     0.0420392  
H314     H      0.242080000000     0.778880000000     0.947950000000     0.0434988  
H315     H      0.210990000000     0.864240000000     0.052160000000     0.0371431  
H316     H      0.397150000000     0.684120000000     0.069570000000     0.0317601  
H317     H      0.233770000000     0.238830000000     0.062870000000     0.0434863  
H318     H      0.272630000000     0.372030000000     0.988860000000     0.0342024  
H319     H      0.363390000000     0.278820000000     0.985200000000     0.033614   
H320     H      0.114720000000     0.186710000000     0.037270000000     0.0288473  
H321     H      0.329870000000     0.401910000000     0.952810000000     0.0327012  
H322     H      0.237210000000     0.152560000000     0.996520000000     0.0327775  
H323     H      0.143930000000     0.243070000000     0.000380000000     0.0264009  
H324     H      0.183380000000     0.098150000000     0.984040000000     0.0402939  
H325     H      0.418120000000     0.331120000000     0.998860000000     0.0343277  
H326     H      0.286660000000     0.291930000000     0.054870000000     0.0389644  
H327     H      0.326940000000     0.424820000000     0.002770000000     0.0276304  
H328     H      0.220730000000     0.231910000000     0.931410000000     0.0405049  
H329     H      0.303100000000     0.361750000000     0.033900000000     0.0308467  
H330     H      0.090670000000     0.187980000000     0.987850000000     0.041264   
H331     H      0.393140000000     0.336750000000     0.950140000000     0.0332448  
H332     H      0.204970000000     0.161270000000     0.952430000000     0.0346732  
H333     H      0.151710000000     0.212970000000     0.954630000000     0.0335657  
H334     H      0.273710000000     0.285010000000     0.923380000000     0.0433721  
H335     H      0.355780000000     0.307770000000     0.031760000000     0.0302692  
H336     H      0.183450000000     0.120110000000     0.034450000000     0.0279503  
H337     H      0.769470000000     0.080060000000     0.793550000000     0.043594   
H338     H      0.636350000000     0.010730000000     0.746900000000     0.0329229  
H339     H      0.732880000000     0.011610000000     0.659950000000     0.0328848  
H340     H      0.824590000000     0.045390000000     0.909930000000     0.0351258  
H341     H      0.606960000000     0.976260000000     0.689400000000     0.0379873  
H342     H      0.854430000000     0.014230000000     0.783670000000     0.0344783  
H343     H      0.767070000000     0.011050000000     0.879820000000     0.0344347  
H344     H      0.910450000000     0.997810000000     0.834310000000     0.0405234  
H345     H      0.681450000000     0.027830000000     0.604030000000     0.0356537  
H346     H      0.716840000000     0.075760000000     0.739760000000     0.0397658  
H347     H      0.585880000000     0.027070000000     0.690000000000     0.0356475  
H348     H      0.775360000000     0.947810000000     0.798330000000     0.0394626  
H349     H      0.647450000000     0.056530000000     0.717890000000     0.0363692  
H350     H      0.823890000000     0.994190000000     0.930100000000     0.0403635  
H351     H      0.679080000000     0.976840000000     0.624540000000     0.0365916  
H352     H      0.846650000000     0.967740000000     0.812700000000     0.0407145  
H353     H      0.796600000000     0.965880000000     0.867560000000     0.0405426  
H354     H      0.722820000000     0.943520000000     0.744500000000     0.0437153  
H355     H      0.702350000000     0.057000000000     0.668340000000     0.0366226  
H356     H      0.888470000000     0.048030000000     0.839160000000     0.0349896  
H357     H      0.279180000000     0.071290000000     0.710970000000     0.0386858  
H358     H      0.135720000000     0.020470000000     0.767390000000     0.0341955  
H359     H      0.231670000000     0.028440000000     0.854850000000     0.0349889  
H360     H      0.325200000000     0.960680000000     0.611040000000     0.0299112  
H361     H      0.108480000000     0.060600000000     0.823440000000     0.0320385  
H362     H      0.355480000000     0.001390000000     0.732450000000     0.0352713  
H363     H      0.267850000000     0.999960000000     0.636400000000     0.0412232  
H364     H      0.412140000000     0.010010000000     0.681240000000     0.0296992  
H365     H      0.181190000000     0.019870000000     0.911880000000     0.0344161  
H366     H      0.226190000000     0.083930000000     0.763060000000     0.0429313  
H367     H      0.084330000000     0.011080000000     0.824010000000     0.0330743  
H368     H      0.266890000000     0.940810000000     0.730070000000     0.0424328  
H369     H      0.146160000000     0.977130000000     0.800210000000     0.0415348  
H370     H      0.324250000000     0.008970000000     0.584580000000     0.0288859  
H371     H      0.174730000000     0.066480000000     0.883280000000     0.0326626  
H372     H      0.349750000000     0.045870000000     0.699980000000     0.0394544  
H373     H      0.298940000000     0.045070000000     0.644380000000     0.0400849  
H374     H      0.214080000000     0.953450000000     0.782310000000     0.0396306  
H375     H      0.201930000000     0.981850000000     0.851280000000     0.0422355  
H376     H      0.386300000000     0.961460000000     0.678370000000     0.0305808  
H377     H      0.245590000000     0.080290000000     0.223650000000     0.0422876  
H378     H      0.379100000000     0.009890000000     0.267050000000     0.0323693  
H379     H      0.282830000000     0.005520000000     0.354240000000     0.0325247  
H380     H      0.190070000000     0.049760000000     0.106020000000     0.0264283  
H381     H      0.408650000000     0.973370000000     0.323440000000     0.03631    
H382     H      0.160640000000     0.014850000000     0.231000000000     0.0342195  
H383     H      0.247850000000     0.014340000000     0.134630000000     0.0333245  
H384     H      0.104440000000     0.000430000000     0.180180000000     0.033129   
H385     H      0.333860000000     0.019700000000     0.410720000000     0.0359759  
H386     H      0.298380000000     0.073890000000     0.277060000000     0.0391782  
H387     H      0.429610000000     0.024260000000     0.324180000000     0.0358899  
H388     H      0.239720000000     0.948330000000     0.213680000000     0.0392392  
H389     H      0.367480000000     0.054330000000     0.297930000000     0.0362859  
H390     H      0.191130000000     0.999360000000     0.083920000000     0.0388634  
H391     H      0.337850000000     0.970010000000     0.387390000000     0.0376336  
H392     H      0.168180000000     0.969180000000     0.200630000000     0.0417455  
H393     H      0.218280000000     0.968830000000     0.145500000000     0.0407234  
H394     H      0.292540000000     0.941940000000     0.267020000000     0.0434468  
H395     H      0.312520000000     0.051800000000     0.347810000000     0.0362944  
H396     H      0.127010000000     0.050500000000     0.176220000000     0.0254392  
H397     H      0.793380000000     0.941460000000     0.247980000000     0.0437434  
H398     H      0.660040000000     0.012820000000     0.282970000000     0.0337205  
H399     H      0.747100000000     0.013710000000     0.379460000000     0.0338019  
H400     H      0.839130000000     0.969400000000     0.128440000000     0.0376446  
H401     H      0.625560000000     0.048170000000     0.337310000000     0.0264661  
H402     H      0.879730000000     0.010590000000     0.248480000000     0.0330687  
H403     H      0.783680000000     0.004600000000     0.161150000000     0.0324732  
H404     H      0.930140000000     0.025570000000     0.191170000000     0.0367828  
H405     H      0.690500000000     0.998560000000     0.430130000000     0.0393806  
H406     H      0.739700000000     0.947380000000     0.300520000000     0.0395678  
H407     H      0.603920000000     0.997660000000     0.334010000000     0.0394841  
H408     H      0.798420000000     0.073470000000     0.238250000000     0.039428   
H409     H      0.668100000000     0.967390000000     0.313540000000     0.0411742  
H410     H      0.834530000000     0.018850000000     0.104720000000     0.0358763  
H411     H      0.689050000000     0.048830000000     0.407750000000     0.0265298  
H412     H      0.867570000000     0.054730000000     0.217390000000     0.0365897  
H413     H      0.812880000000     0.051220000000     0.167350000000     0.0364252  
H414     H      0.744780000000     0.079400000000     0.290850000000     0.0423958  
H415     H      0.717910000000     0.967890000000     0.368790000000     0.0410261  
H416     H      0.910120000000     0.974330000000     0.192410000000     0.0371657  
H417     H      0.085630000000     0.272090000000     0.732860000000     0.0434489  
H418     H      0.001730000000     0.146160000000     0.773670000000     0.0349089  
H419     H      0.007020000000     0.239800000000     0.863770000000     0.0355981  
H420     H      0.061760000000     0.328270000000     0.614020000000     0.0322287  
H421     H      0.962590000000     0.119800000000     0.830280000000     0.0301437  
H422     H      0.026980000000     0.362900000000     0.735380000000     0.0349417  
H423     H      0.023380000000     0.271640000000     0.642650000000     0.034609   
H424     H      0.017140000000     0.417740000000     0.682920000000     0.0343332  
H425     H      0.016310000000     0.186220000000     0.918730000000     0.0305074  
H426     H      0.074010000000     0.220830000000     0.786920000000     0.0390864  
H427     H      0.010480000000     0.092700000000     0.828410000000     0.0297418  
H428     H      0.954830000000     0.288170000000     0.720100000000     0.0396577  
H429     H      0.047330000000     0.152340000000     0.804440000000     0.0392779  
H430     H      0.012650000000     0.325980000000     0.589160000000     0.0328124  
H431     H      0.966700000000     0.186520000000     0.894890000000     0.0297885  
H432     H      0.980910000000     0.356600000000     0.705270000000     0.0421656  
H433     H      0.978740000000     0.303240000000     0.651370000000     0.0416212  
H434     H      0.943250000000     0.237060000000     0.774210000000     0.0428974  
H435     H      0.050430000000     0.206290000000     0.856180000000     0.0395284  
H436     H      0.064630000000     0.390320000000     0.677790000000     0.0318516  
H437     H      0.939970000000     0.719960000000     0.729360000000     0.038323   
H438     H      0.992290000000     0.773870000000     0.870550000000     0.0411503  
H439     H      0.988350000000     0.864480000000     0.777270000000     0.0404071  
H440     H      0.048010000000     0.615360000000     0.687300000000     0.0356251  
H441     H      0.953830000000     0.830320000000     0.899090000000     0.0307893  
H442     H      0.009260000000     0.737300000000     0.652370000000     0.0279939  
H443     H      0.009140000000     0.644020000000     0.742970000000     0.0278935  
H444     H      0.999520000000     0.684080000000     0.597540000000     0.0424304  
H445     H      0.999290000000     0.919690000000     0.829790000000     0.0359276  
H446     H      0.929070000000     0.773260000000     0.781570000000     0.0448951  
H447     H      0.003100000000     0.828420000000     0.923550000000     0.0307953  
H448     H      0.070910000000     0.735780000000     0.740540000000     0.0422568  
H449     H      0.036750000000     0.805590000000     0.861400000000     0.0402871  
H450     H      0.998860000000     0.590580000000     0.687950000000     0.0417475  
H451     H      0.951160000000     0.893300000000     0.834410000000     0.0317847  
H452     H      0.964510000000     0.705430000000     0.659200000000     0.0345731  
H453     H      0.964380000000     0.651850000000     0.711420000000     0.0342401  
H454     H      0.060030000000     0.789180000000     0.792590000000     0.0415968  
H455     H      0.034480000000     0.858160000000     0.807200000000     0.0394942  
H456     H      0.048430000000     0.682320000000     0.622720000000     0.0356997  
H457     H      0.096780000000     0.779570000000     0.239560000000     0.0428626  
H458     H      0.015370000000     0.652630000000     0.276950000000     0.0326124  
H459     H      0.016330000000     0.743330000000     0.370070000000     0.032832   
H460     H      0.072240000000     0.833500000000     0.119320000000     0.0320842  
H461     H      0.975300000000     0.622950000000     0.330950000000     0.0362665  
H462     H      0.038760000000     0.870660000000     0.239980000000     0.0352426  
H463     H      0.033990000000     0.777410000000     0.149320000000     0.0345051  
H464     H      0.028290000000     0.924410000000     0.186300000000     0.034865   
H465     H      0.025380000000     0.687730000000     0.423490000000     0.0358623  
H466     H      0.085250000000     0.727740000000     0.293150000000     0.0395221  
H467     H      0.024140000000     0.597620000000     0.330540000000     0.0362962  
H468     H      0.965960000000     0.795130000000     0.226550000000     0.0398027  
H469     H      0.059840000000     0.658760000000     0.309270000000     0.0366687  
H470     H      0.023080000000     0.830400000000     0.094730000000     0.0340065  
H471     H      0.976190000000     0.688820000000     0.398920000000     0.0376399  
H472     H      0.992300000000     0.863780000000     0.210670000000     0.0425344  
H473     H      0.989490000000     0.809250000000     0.157740000000     0.0421543  
H474     H      0.954470000000     0.743170000000     0.279900000000     0.0436836  
H475     H      0.060440000000     0.710810000000     0.362510000000     0.036491   
H476     H      0.075720000000     0.896870000000     0.181210000000     0.0330321  
H477     H      0.930180000000     0.280120000000     0.274390000000     0.0446512  
H478     H      0.012810000000     0.151560000000     0.238240000000     0.0338823  
H479     H      0.008430000000     0.242020000000     0.144930000000     0.027146   
H480     H      0.952880000000     0.335260000000     0.391880000000     0.0304152  
H481     H      0.051230000000     0.122370000000     0.182520000000     0.0259652  
H482     H      0.991690000000     0.371760000000     0.272320000000     0.040246   
H483     H      0.990900000000     0.278570000000     0.363120000000     0.0402929  
H484     H      0.002970000000     0.425200000000     0.326750000000     0.0253205  
H485     H      0.998830000000     0.186910000000     0.091930000000     0.0414514  
H486     H      0.941250000000     0.226650000000     0.222380000000     0.0381324  
H487     H      0.002850000000     0.096230000000     0.185180000000     0.0332123  
H488     H      0.061120000000     0.295550000000     0.286320000000     0.0397674  
H489     H      0.967150000000     0.157280000000     0.207500000000     0.0414587  
H490     H      0.001240000000     0.331220000000     0.417880000000     0.0261518  
H491     H      0.048320000000     0.187130000000     0.116010000000     0.0281806  
H492     H      0.036880000000     0.363440000000     0.303170000000     0.0364689  
H493     H      0.036340000000     0.309450000000     0.356080000000     0.0367625  
H494     H      0.072160000000     0.242290000000     0.234180000000     0.0409472  
H495     H      0.964690000000     0.209230000000     0.153670000000     0.0349566  
H496     H      0.953950000000     0.400220000000     0.329240000000     0.0307985  
N1       N      0.511910000000     0.134780000000     0.378210000000    -0.193759   
N2       N      0.519920000000     0.194610000000     0.316380000000    -0.112985   
N3       N      0.497790000000     0.315440000000     0.192000000000    -0.112989   
N4       N      0.505310000000     0.377210000000     0.132080000000    -0.193853   
N5       N      0.497480000000     0.633110000000     0.139300000000    -0.189119   
N6       N      0.494110000000     0.693870000000     0.201420000000    -0.11259    
N7       N      0.531920000000     0.816590000000     0.320950000000    -0.11266    
N8       N      0.527650000000     0.879270000000     0.381110000000    -0.188809   
N9       N      0.504580000000     0.881930000000     0.636760000000    -0.187604   
N10      N      0.513690000000     0.822760000000     0.698930000000    -0.112386   
N11      N      0.496680000000     0.701010000000     0.823190000000    -0.112406   
N12      N      0.506050000000     0.639440000000     0.882960000000    -0.187734   
N13      N      0.490650000000     0.383450000000     0.876760000000    -0.189454   
N14      N      0.484670000000     0.323480000000     0.814320000000    -0.112724   
N15      N      0.518390000000     0.200020000000     0.694730000000    -0.112599   
N16      N      0.513370000000     0.138250000000     0.634010000000    -0.189545   
N17      N      0.633120000000     0.137920000000     0.521830000000    -0.192851   
N18      N      0.693860000000     0.199900000000     0.525300000000    -0.112679   
N19      N      0.815420000000     0.320330000000     0.487270000000    -0.112755   
N20      N      0.877680000000     0.380760000000     0.491520000000    -0.189171   
N21      N      0.880430000000     0.636760000000     0.519860000000    -0.187003   
N22      N      0.820100000000     0.698830000000     0.525770000000    -0.112779   
N23      N      0.699380000000     0.821670000000     0.493780000000    -0.112521   
N24      N      0.637690000000     0.882380000000     0.499730000000    -0.189701   
N25      N      0.133320000000     0.378110000000     0.511640000000    -0.192891   
N26      N      0.194170000000     0.316230000000     0.515650000000    -0.112567   
N27      N      0.316930000000     0.195880000000     0.481130000000    -0.112887   
N28      N      0.378960000000     0.135270000000     0.487050000000    -0.189183   
N29      N      0.136870000000     0.634020000000     0.505120000000    -0.189837   
N30      N      0.198490000000     0.694120000000     0.512100000000    -0.112388   
N31      N      0.321010000000     0.817260000000     0.491360000000    -0.112573   
N32      N      0.381100000000     0.878830000000     0.500400000000    -0.187272   
N33      N      0.878120000000     0.506070000000     0.379180000000    -0.189072   
N34      N      0.816880000000     0.509140000000     0.318200000000    -0.112439   
N35      N      0.695130000000     0.479140000000     0.196040000000    -0.112786   
N36      N      0.634010000000     0.487720000000     0.135050000000    -0.18965    
N37      N      0.133850000000     0.519840000000     0.379370000000    -0.193466   
N38      N      0.194980000000     0.528580000000     0.318500000000    -0.112693   
N39      N      0.317510000000     0.502390000000     0.196290000000    -0.112975   
N40      N      0.378850000000     0.507800000000     0.135530000000    -0.193163   
N41      N      0.135420000000     0.488440000000     0.633650000000    -0.189698   
N42      N      0.196510000000     0.480530000000     0.694780000000    -0.112563   
N43      N      0.316730000000     0.511060000000     0.818410000000    -0.112432   
N44      N      0.377700000000     0.507970000000     0.879780000000    -0.189208   
N45      N      0.879170000000     0.504450000000     0.636000000000    -0.187353   
N46      N      0.818140000000     0.499120000000     0.697140000000    -0.112599   
N47      N      0.695720000000     0.526880000000     0.819090000000    -0.112692   
N48      N      0.634450000000     0.518990000000     0.879910000000    -0.187147   
N49      N      0.882050000000     0.877500000000     0.016220000000    -0.187433   
N50      N      0.821950000000     0.815420000000     0.022230000000    -0.110911   
N51      N      0.698870000000     0.694030000000     0.994460000000    -0.103816   
N52      N      0.636770000000     0.633970000000     0.001780000000    -0.19419    
N53      N      0.878730000000     0.134080000000     0.028830000000    -0.189588   
N54      N      0.816690000000     0.194400000000     0.036960000000    -0.110937   
N55      N      0.693400000000     0.315260000000     0.006500000000    -0.113201   
N56      N      0.632870000000     0.377230000000     0.009410000000    -0.187659   
N57      N      0.138550000000     0.882210000000     0.005820000000    -0.188095   
N58      N      0.200360000000     0.821800000000     0.003160000000    -0.113309   
N59      N      0.320920000000     0.699190000000     0.035630000000    -0.11096    
N60      N      0.380920000000     0.637080000000     0.027880000000    -0.190932   
N61      N      0.377250000000     0.382920000000     0.992920000000    -0.194159   
N62      N      0.315420000000     0.323080000000     0.982220000000    -0.114072   
N63      N      0.192880000000     0.199990000000     0.004100000000    -0.121672   
N64      N      0.132790000000     0.138180000000     0.998080000000    -0.186413   
N65      N      0.629080000000     0.014520000000     0.641820000000    -0.188533   
N66      N      0.686500000000     0.005150000000     0.705460000000    -0.112913   
N67      N      0.808500000000     0.018420000000     0.829930000000    -0.11092    
N68      N      0.872200000000     0.007520000000     0.887230000000    -0.186326   
N69      N      0.128060000000     0.022660000000     0.872330000000    -0.189526   
N70      N      0.186190000000     0.028710000000     0.808000000000    -0.111038   
N71      N      0.308820000000     0.996090000000     0.687060000000    -0.1039     
N72      N      0.372950000000     0.001010000000     0.628660000000    -0.193224   
N73      N      0.386570000000     0.010170000000     0.372150000000    -0.188203   
N74      N      0.329070000000     0.002000000000     0.308260000000    -0.113145   
N75      N      0.206580000000     0.020140000000     0.184860000000    -0.111239   
N76      N      0.142750000000     0.010740000000     0.127360000000    -0.193193   
N77      N      0.642020000000     0.009320000000     0.386640000000    -0.193012   
N78      N      0.705820000000     0.018900000000     0.329170000000    -0.111391   
N79      N      0.829890000000     0.001840000000     0.207210000000    -0.113054   
N80      N      0.887370000000     0.010260000000     0.143370000000    -0.188026   
N81      N      0.003300000000     0.135500000000     0.878350000000    -0.195786   
N82      N      0.999310000000     0.195600000000     0.816320000000    -0.104361   
N83      N      0.029490000000     0.314460000000     0.691580000000    -0.110943   
N84      N      0.021590000000     0.376250000000     0.631340000000    -0.190808   
N85      N      0.993450000000     0.878630000000     0.881390000000    -0.188628   
N86      N      0.985760000000     0.816390000000     0.821400000000    -0.107553   
N87      N      0.014280000000     0.693140000000     0.700250000000    -0.117929   
N88      N      0.009310000000     0.632840000000     0.638230000000    -0.184587   
N89      N      0.013180000000     0.638420000000     0.381350000000    -0.18757    
N90      N      0.010550000000     0.700590000000     0.321050000000    -0.11307    
N91      N      0.040540000000     0.821160000000     0.197370000000    -0.11094    
N92      N      0.032020000000     0.881780000000     0.135650000000    -0.189413   
N93      N      0.010830000000     0.137210000000     0.133960000000    -0.191797   
N94      N      0.015670000000     0.199480000000     0.193930000000    -0.114567   
N95      N      0.986760000000     0.322570000000     0.315040000000    -0.107305   
N96      N      0.994440000000     0.382880000000     0.376900000000    -0.196684   
O1       O      0.007190000000     0.118820000000     0.065070000000    -0.628203   
O2       O      0.018760000000     0.898320000000     0.067240000000    -0.566301   
O3       O      0.955660000000     0.011860000000     0.121880000000    -0.610423   
O4       O      0.072670000000     0.008350000000     0.113850000000    -0.62849    
O5       O      0.121270000000     0.008380000000     0.059190000000    -0.62652    
O6       O      0.901090000000     0.008600000000     0.073360000000    -0.573531   
O7       O      0.022540000000     0.950570000000     0.118190000000    -0.60878    
O8       O      0.010630000000     0.067570000000     0.117150000000    -0.6247     
O9       O      0.051390000000     0.969140000000     0.045600000000    -1.45621    
O10      O      0.969410000000     0.048110000000     0.050140000000    -1.45867    
O11      O      0.964710000000     0.960750000000     0.052670000000    -1.0535     
O12      O      0.051320000000     0.051140000000     0.046530000000    -1.62775    
O13      O      0.002870000000     0.896890000000     0.949840000000    -0.567163   
O14      O      0.006490000000     0.118690000000     0.947840000000    -0.61158    
O15      O      0.898350000000     0.947110000000     0.013500000000    -0.565701   
O16      O      0.119820000000     0.951330000000     0.005670000000    -0.611356   
O17      O      0.116470000000     0.068560000000     0.998560000000    -0.623237   
O18      O      0.896820000000     0.065420000000     0.019260000000    -0.569849   
O19      O      0.942300000000     0.006230000000     0.900800000000    -0.564827   
O20      O      0.060340000000     0.012770000000     0.893720000000    -0.568463   
O21      O      0.893670000000     0.005590000000     0.955470000000    -0.564071   
O22      O      0.114770000000     0.016460000000     0.942310000000    -0.610768   
O23      O      0.950960000000     0.896260000000     0.011630000000    -0.561789   
O24      O      0.947560000000     0.118010000000     0.017400000000    -0.608355   
O25      O      0.063850000000     0.119370000000     0.001060000000    -0.63021    
O26      O      0.069020000000     0.898720000000     0.006780000000    -0.57241    
O27      O      0.999280000000     0.948150000000     0.897770000000    -0.560747   
O28      O      0.002900000000     0.066460000000     0.896810000000    -0.572953   
O29      O      0.044870000000     0.049050000000     0.964830000000    -1.45756    
O30      O      0.965980000000     0.967010000000     0.970230000000    -1.34984    
O31      O      0.957490000000     0.048960000000     0.963730000000    -1.05584    
O32      O      0.047730000000     0.961770000000     0.958520000000    -1.04826    
O33      O      0.001570000000     0.398730000000     0.446120000000    -0.636752   
O34      O      0.010600000000     0.619320000000     0.450390000000    -0.567379   
O35      O      0.947500000000     0.506080000000     0.396520000000    -0.60924    
O36      O      0.064740000000     0.513510000000     0.396840000000    -0.629202   
O37      O      0.116690000000     0.511740000000     0.448240000000    -0.636289   
O38      O      0.896060000000     0.507480000000     0.448440000000    -0.572831   
O39      O      0.011430000000     0.568760000000     0.397590000000    -0.613082   
O40      O      0.001670000000     0.451660000000     0.395670000000    -0.632926   
O41      O      0.047570000000     0.548060000000     0.467530000000    -1.47061    
O42      O      0.966200000000     0.468530000000     0.466090000000    -1.47036    
O43      O      0.960370000000     0.555710000000     0.466750000000    -1.05112    
O44      O      0.048290000000     0.465860000000     0.463610000000    -1.63265    
O45      O      0.007850000000     0.616640000000     0.568670000000    -0.565736   
O46      O      0.012790000000     0.394900000000     0.562820000000    -0.612697   
O47      O      0.896940000000     0.567460000000     0.512510000000    -0.569361   
O48      O      0.118530000000     0.564880000000     0.504000000000    -0.619033   
O49      O      0.116480000000     0.447590000000     0.508080000000    -0.632495   
O50      O      0.895900000000     0.449330000000     0.501250000000    -0.573445   
O51      O      0.948470000000     0.505550000000     0.618130000000    -0.568828   
O52      O      0.066690000000     0.499000000000     0.616870000000    -0.570996   
O53      O      0.896470000000     0.507070000000     0.566710000000    -0.571098   
O54      O      0.118000000000     0.497750000000     0.564850000000    -0.612911   
O55      O      0.949300000000     0.618580000000     0.513330000000    -0.56325    
O56      O      0.947020000000     0.397110000000     0.498700000000    -0.609342   
O57      O      0.064240000000     0.396390000000     0.507100000000    -0.625819   
O58      O      0.067410000000     0.617140000000     0.506700000000    -0.570802   
O59      O      0.007510000000     0.563730000000     0.619210000000    -0.569455   
O60      O      0.012200000000     0.445350000000     0.615710000000    -0.575236   
O61      O      0.046890000000     0.465700000000     0.545670000000    -1.48283    
O62      O      0.967430000000     0.546860000000     0.548580000000    -1.36624    
O63      O      0.960040000000     0.464440000000     0.552990000000    -1.06481    
O64      O      0.049700000000     0.552260000000     0.554730000000    -1.0569     
O65      O      0.620840000000     0.008210000000     0.454840000000    -0.632289   
O66      O      0.400540000000     0.009230000000     0.442220000000    -0.56824    
O67      O      0.520470000000     0.948780000000     0.397400000000    -0.606426   
O68      O      0.510510000000     0.065820000000     0.396660000000    -0.631748   
O69      O      0.507710000000     0.118220000000     0.447640000000    -0.631794   
O70      O      0.516300000000     0.897520000000     0.449320000000    -0.57303    
O71      O      0.454870000000     0.011250000000     0.393340000000    -0.614933   
O72      O      0.571940000000     0.006730000000     0.400490000000    -0.628938   
O73      O      0.469290000000     0.048250000000     0.464360000000    -1.46484    
O74      O      0.550610000000     0.968710000000     0.469410000000    -1.47364    
O75      O      0.463890000000     0.960940000000     0.463270000000    -1.05982    
O76      O      0.551250000000     0.050870000000     0.467290000000    -1.63779    
O77      O      0.393930000000     0.005360000000     0.560320000000    -0.563462   
O78      O      0.615220000000     0.014050000000     0.571710000000    -0.617299   
O79      O      0.450050000000     0.897150000000     0.505510000000    -0.572893   
O80      O      0.447960000000     0.118870000000     0.497000000000    -0.616463   
O81      O      0.564460000000     0.119640000000     0.513080000000    -0.627336   
O82      O      0.568400000000     0.898930000000     0.505990000000    -0.574389   
O83      O      0.502140000000     0.950830000000     0.618150000000    -0.565414   
O84      O      0.505950000000     0.069070000000     0.616950000000    -0.570489   
O85      O      0.505690000000     0.898440000000     0.567160000000    -0.571924   
O86      O      0.509520000000     0.120280000000     0.564930000000    -0.616409   
O87      O      0.397800000000     0.948340000000     0.502570000000    -0.560747   
O88      O      0.619380000000     0.951330000000     0.506180000000    -0.610493   
O89      O      0.616630000000     0.068480000000     0.516550000000    -0.629318   
O90      O      0.396890000000     0.066560000000     0.496490000000    -0.56825    
O91      O      0.442930000000     0.006490000000     0.614600000000    -0.567865   
O92      O      0.560850000000     0.012690000000     0.620570000000    -0.570679   
O93      O      0.545300000000     0.049830000000     0.548910000000    -1.47397    
O94      O      0.465960000000     0.968190000000     0.545550000000    -1.36071    
O95      O      0.547680000000     0.962770000000     0.556260000000    -1.06262    
O96      O      0.457880000000     0.050620000000     0.551090000000    -1.05334    
O97      O      0.395630000000     0.451490000000     0.001790000000    -0.63529    
O98      O      0.616140000000     0.446830000000     0.008100000000    -0.570095   
O99      O      0.498130000000     0.398820000000     0.946150000000    -0.609901   
O100     O      0.506830000000     0.396270000000     0.063160000000    -0.628973   
O101     O      0.507420000000     0.446750000000     0.116130000000    -0.633646   
O102     O      0.500810000000     0.451770000000     0.895850000000    -0.575494   
O103     O      0.563690000000     0.395880000000     0.009080000000    -0.614126   
O104     O      0.446520000000     0.398960000000     0.000440000000    -0.632322   
O105     O      0.545980000000     0.465790000000     0.046930000000    -1.46806    
O106     O      0.465480000000     0.469510000000     0.966750000000    -1.47544    
O107     O      0.552540000000     0.466530000000     0.959570000000    -1.05697    
O108     O      0.463990000000     0.465460000000     0.048460000000    -1.63457    
O109     O      0.618190000000     0.565040000000     0.006610000000    -0.566316   
O110     O      0.396810000000     0.568100000000     0.017330000000    -0.615677   
O111     O      0.565240000000     0.513240000000     0.897190000000    -0.572008   
O112     O      0.565150000000     0.497120000000     0.118180000000    -0.617047   
O113     O      0.448220000000     0.508090000000     0.117960000000    -0.62849    
O114     O      0.446970000000     0.509100000000     0.897480000000    -0.575417   
O115     O      0.507880000000     0.620340000000     0.951900000000    -0.564258   
O116     O      0.504900000000     0.617020000000     0.070050000000    -0.573477   
O117     O      0.507460000000     0.569860000000     0.898920000000    -0.573664   
O118     O      0.502050000000     0.564030000000     0.120300000000    -0.612616   
O119     O      0.617050000000     0.510960000000     0.948750000000    -0.560936   
O120     O      0.395320000000     0.507400000000     0.949160000000    -0.611526   
O121     O      0.396450000000     0.509570000000     0.066330000000    -0.631532   
O122     O      0.616840000000     0.499450000000     0.066590000000    -0.569418   
O123     O      0.567350000000     0.617700000000     0.007540000000    -0.571466   
O124     O      0.449210000000     0.619080000000     0.016760000000    -0.573046   
O125     O      0.466970000000     0.547530000000     0.049350000000    -1.4782     
O126     O      0.546990000000     0.548550000000     0.968820000000    -1.36991    
O127     O      0.465130000000     0.556770000000     0.962740000000    -1.06575    
O128     O      0.554290000000     0.552830000000     0.051070000000    -1.05567    


