data_structure

_audit_creation_method RASPA-1.0
_audit_creation_date 2023-5-25
_audit_author_name 'Poobodin Mano'

_cell_length_a    32.657
_cell_length_b    32.5609
_cell_length_c    32.647
_cell_angle_alpha 90
_cell_angle_beta  90
_cell_angle_gamma 90
_cell_volume      34714.9

_symmetry_cell_setting          triclinic
_symmetry_space_group_name_Hall 'P 1'
_symmetry_space_group_name_H-M  'P 1'
_symmetry_Int_Tables_number     1

_symmetry_equiv_pos_as_xyz 'x,y,z'

loop_
_atom_site_label
_atom_site_type_symbol
_atom_site_fract_x
_atom_site_fract_y
_atom_site_fract_z
_atom_site_charge
C1       C      0.997050000000     0.103260000000     0.102820000000     0.5074     
C2       C      0.019140000000     0.907770000000     0.103020000000     0.502337   
C3       C      0.908820000000     0.006120000000     0.106620000000     0.499907   
C4       C      0.104220000000     0.007470000000     0.100120000000     0.501049   
C5       C      0.004730000000     0.907110000000     0.906450000000     0.489191   
C6       C      0.001500000000     0.104330000000     0.906750000000     0.499236   
C7       C      0.908820000000     0.903940000000     0.006530000000     0.490673   
C8       C      0.105460000000     0.910110000000     0.007240000000     0.5019     
C9       C      0.098810000000     0.106650000000     0.000580000000     0.49464    
C10      C      0.903260000000     0.101690000000     0.011910000000     0.499097   
C11      C      0.903300000000     0.998000000000     0.909900000000     0.49792    
C12      C      0.099350000000     0.016010000000     0.904750000000     0.506392   
C13      C      0.000880000000     0.407220000000     0.406190000000     0.497214   
C14      C      0.011370000000     0.603520000000     0.405160000000     0.499106   
C15      C      0.905980000000     0.501550000000     0.404920000000     0.498193   
C16      C      0.101980000000     0.511220000000     0.406610000000     0.503591   
C17      C      0.000140000000     0.604620000000     0.601560000000     0.488806   
C18      C      0.008810000000     0.406520000000     0.602060000000     0.500483   
C19      C      0.907650000000     0.605790000000     0.504600000000     0.492587   
C20      C      0.104570000000     0.601810000000     0.502070000000     0.506163   
C21      C      0.101300000000     0.406370000000     0.506510000000     0.495844   
C22      C      0.904260000000     0.408340000000     0.501460000000     0.504964   
C23      C      0.905140000000     0.509180000000     0.601920000000     0.489307   
C24      C      0.101460000000     0.496270000000     0.602870000000     0.50409    
C25      C      0.605140000000     0.003090000000     0.409040000000     0.502129   
C26      C      0.409660000000     0.004030000000     0.400070000000     0.504634   
C27      C      0.518270000000     0.904820000000     0.407790000000     0.502431   
C28      C      0.503030000000     0.100910000000     0.401840000000     0.504341   
C29      C      0.401190000000     0.005130000000     0.596400000000     0.492243   
C30      C      0.597460000000     0.017470000000     0.604520000000     0.499286   
C31      C      0.408370000000     0.904460000000     0.501510000000     0.494917   
C32      C      0.402870000000     0.101380000000     0.487890000000     0.501151   
C33      C      0.598210000000     0.107150000000     0.506310000000     0.501632   
C34      C      0.605160000000     0.910850000000     0.506840000000     0.503835   
C35      C      0.499070000000     0.910470000000     0.603780000000     0.492134   
C36      C      0.501900000000     0.108710000000     0.597080000000     0.503349   
C37      C      0.402700000000     0.410730000000     0.994800000000     0.501563   
C38      C      0.598590000000     0.404920000000     0.007590000000     0.498332   
C39      C      0.497970000000     0.410500000000     0.903260000000     0.50102    
C40      C      0.501980000000     0.405080000000     0.099150000000     0.502841   
C41      C      0.603530000000     0.602120000000     0.002970000000     0.488227   
C42      C      0.406850000000     0.606160000000     0.017170000000     0.503507   
C43      C      0.601380000000     0.507720000000     0.906500000000     0.490113   
C44      C      0.599550000000     0.493680000000     0.104150000000     0.501897   
C45      C      0.404670000000     0.507630000000     0.102360000000     0.499335   
C46      C      0.404190000000     0.506760000000     0.906290000000     0.502501   
C47      C      0.504630000000     0.607650000000     0.909220000000     0.493086   
C48      C      0.497330000000     0.601770000000     0.105980000000     0.504191   
C49      C      0.493380000000     0.201880000000     0.348260000000    -0.0387204  
C50      C      0.509540000000     0.300920000000     0.146920000000    -0.0364831  
C51      C      0.492300000000     0.385440000000     0.171230000000     0.00906001 
C52      C      0.495050000000     0.331400000000     0.114420000000     0.00913516 
C53      C      0.463480000000     0.260060000000     0.233010000000    -0.0553267  
C54      C      0.541630000000     0.239360000000     0.261290000000    -0.0552251  
C55      C      0.497820000000     0.280160000000     0.216950000000     0.0603775  
C56      C      0.506800000000     0.352000000000     0.200610000000    -0.0362767  
C57      C      0.507250000000     0.219700000000     0.277760000000     0.059895   
C58      C      0.500810000000     0.148270000000     0.297490000000    -0.0619436  
C59      C      0.468020000000     0.229930000000     0.263120000000    -0.056994   
C60      C      0.516350000000     0.117080000000     0.329210000000     0.0890371  
C61      C      0.507870000000     0.173860000000     0.382850000000     0.0116906  
C62      C      0.537110000000     0.269310000000     0.231030000000    -0.0573632  
C63      C      0.562950000000     0.111570000000     0.325670000000    -0.178619   
C64      C      0.506450000000     0.702370000000     0.158690000000    -0.0384455  
C65      C      0.512230000000     0.801470000000     0.360940000000    -0.0359056  
C66      C      0.534470000000     0.884620000000     0.336460000000     0.00875214 
C67      C      0.529980000000     0.831200000000     0.392660000000     0.00737749 
C68      C      0.549470000000     0.757660000000     0.271580000000    -0.0551647  
C69      C      0.468220000000     0.742810000000     0.248940000000    -0.0545101  
C70      C      0.517980000000     0.780240000000     0.290090000000     0.060329   
C71      C      0.516580000000     0.852700000000     0.307050000000    -0.0363386  
C72      C      0.499740000000     0.720480000000     0.230170000000     0.0592278  
C73      C      0.500840000000     0.648750000000     0.209960000000    -0.0641679  
C74      C      0.540580000000     0.728000000000     0.241900000000    -0.0564069  
C75      C      0.483090000000     0.617980000000     0.178780000000     0.0945713  
C76      C      0.488740000000     0.674670000000     0.125280000000     0.0102191  
C77      C      0.477110000000     0.772420000000     0.278670000000    -0.0571733  
C78      C      0.436590000000     0.613370000000     0.184180000000    -0.186149   
C79      C      0.491390000000     0.808210000000     0.656860000000    -0.038041   
C80      C      0.508550000000     0.712120000000     0.860540000000    -0.0356913  
C81      C      0.495750000000     0.626630000000     0.836910000000     0.00823237 
C82      C      0.496100000000     0.681090000000     0.893470000000     0.00737632 
C83      C      0.460150000000     0.747930000000     0.772120000000    -0.0548473  
C84      C      0.537090000000     0.775530000000     0.746600000000    -0.0547248  
C85      C      0.495520000000     0.731570000000     0.790150000000     0.0605761  
C86      C      0.508510000000     0.660600000000     0.807320000000    -0.0358897  
C87      C      0.501750000000     0.791760000000     0.728500000000     0.0599667  
C88      C      0.487940000000     0.861990000000     0.707600000000    -0.0632435  
C89      C      0.463100000000     0.777800000000     0.741490000000    -0.0566553  
C90      C      0.503430000000     0.894920000000     0.677690000000     0.0925727  
C91      C      0.505830000000     0.837820000000     0.623420000000     0.00961734 
C92      C      0.534160000000     0.745640000000     0.777140000000    -0.0570919  
C93      C      0.548310000000     0.905460000000     0.686830000000    -0.184815   
C94      C      0.513390000000     0.212830000000     0.645320000000    -0.0387213  
C95      C      0.490460000000     0.309390000000     0.848460000000    -0.036197   
C96      C      0.505880000000     0.395690000000     0.829910000000     0.00811672 
C97      C      0.503770000000     0.337940000000     0.883170000000     0.00838314 
C98      C      0.539370000000     0.274830000000     0.761300000000    -0.0550689  
C99      C      0.462390000000     0.252700000000     0.731050000000    -0.054999   
C100     C      0.504160000000     0.293330000000     0.777490000000     0.0604554  
C101     C      0.492640000000     0.363780000000     0.798260000000    -0.0359079  
C102     C      0.497570000000     0.234180000000     0.714900000000     0.0597756  
C103     C      0.504780000000     0.162020000000     0.698600000000    -0.063139   
C104     C      0.536230000000     0.245370000000     0.730310000000    -0.0567684  
C105     C      0.488890000000     0.129490000000     0.668550000000     0.09233    
C106     C      0.499420000000     0.182910000000     0.611870000000     0.0113821  
C107     C      0.465500000000     0.282000000000     0.762130000000    -0.05738    
C108     C      0.442160000000     0.125530000000     0.671900000000    -0.184495   
C109     C      0.850920000000     0.306490000000     0.496520000000    -0.0386421  
C110     C      0.646370000000     0.211950000000     0.512160000000    -0.0365442  
C111     C      0.670930000000     0.126090000000     0.503990000000     0.00986709 
C112     C      0.614310000000     0.180540000000     0.498440000000     0.00905949 
C113     C      0.736010000000     0.246670000000     0.467330000000    -0.0552707  
C114     C      0.760700000000     0.274700000000     0.544420000000    -0.0550139  
C115     C      0.717450000000     0.230770000000     0.502590000000     0.0603408  
C116     C      0.699230000000     0.160530000000     0.518000000000    -0.0367451  
C117     C      0.779690000000     0.290130000000     0.509180000000     0.0598684  
C118     C      0.800140000000     0.360480000000     0.497300000000    -0.0634319  
C119     C      0.766800000000     0.276260000000     0.470440000000    -0.0569265  
C120     C      0.831080000000     0.392900000000     0.511680000000     0.09296    
C121     C      0.885130000000     0.335710000000     0.509720000000     0.0113378  
C122     C      0.729710000000     0.245310000000     0.541300000000    -0.0573227  
C123     C      0.825060000000     0.402600000000     0.557420000000    -0.183019   
C124     C      0.859340000000     0.709720000000     0.513850000000    -0.0378555  
C125     C      0.657910000000     0.809020000000     0.502260000000    -0.0359561  
C126     C      0.678480000000     0.895230000000     0.515380000000     0.00894354 
C127     C      0.624450000000     0.838470000000     0.516550000000     0.00848364 
C128     C      0.746520000000     0.773060000000     0.546850000000    -0.0550629  
C129     C      0.771540000000     0.749030000000     0.468520000000    -0.0546167  
C130     C      0.729030000000     0.791750000000     0.512380000000     0.0607766  
C131     C      0.709140000000     0.862620000000     0.501350000000    -0.0360427  
C132     C      0.788950000000     0.730280000000     0.502970000000     0.059895   
C133     C      0.805940000000     0.658390000000     0.512120000000    -0.0630573  
C134     C      0.776260000000     0.742520000000     0.542320000000    -0.0565026  
C135     C      0.835020000000     0.624950000000     0.496080000000     0.0917412  
C136     C      0.891720000000     0.679440000000     0.498610000000     0.00893777 
C137     C      0.741790000000     0.779500000000     0.473040000000    -0.0571064  
C138     C      0.827690000000     0.617130000000     0.450250000000    -0.183683   
C139     C      0.200810000000     0.353400000000     0.486160000000    -0.039478   
C140     C      0.300250000000     0.150110000000     0.492980000000    -0.0359057  
C141     C      0.383310000000     0.172350000000     0.469000000000     0.00863614 
C142     C      0.329440000000     0.116940000000     0.476940000000     0.00703139 
C143     C      0.256160000000     0.237090000000     0.451410000000    -0.0552786  
C144     C      0.244430000000     0.266290000000     0.531080000000    -0.0547577  
C145     C      0.279790000000     0.220940000000     0.483460000000     0.0599632  
C146     C      0.351890000000     0.203170000000     0.485290000000    -0.0363733  
C147     C      0.221220000000     0.282810000000     0.498970000000     0.0590537  
C148     C      0.149420000000     0.302280000000     0.501930000000    -0.0633595  
C149     C      0.226960000000     0.267650000000     0.458990000000    -0.0566103  
C150     C      0.120520000000     0.334290000000     0.521190000000     0.0914565  
C151     C      0.174680000000     0.388190000000     0.503840000000     0.0103094  
C152     C      0.273370000000     0.235540000000     0.523570000000    -0.0571773  
C153     C      0.122500000000     0.332100000000     0.568130000000    -0.184646   
C154     C      0.157540000000     0.703280000000     0.493600000000    -0.0382255  
C155     C      0.360140000000     0.800490000000     0.508620000000    -0.0358024  
C156     C      0.336620000000     0.884880000000     0.489890000000     0.00804856 
C157     C      0.393100000000     0.830740000000     0.494690000000     0.0078511  
C158     C      0.273010000000     0.761190000000     0.461410000000    -0.0553197  
C159     C      0.245790000000     0.739320000000     0.539650000000    -0.0549162  
C160     C      0.290100000000     0.780180000000     0.495900000000     0.0608665  
C161     C      0.306800000000     0.851850000000     0.504290000000    -0.0357156  
C162     C      0.228560000000     0.720510000000     0.505170000000     0.0599648  
C163     C      0.208540000000     0.649520000000     0.496190000000    -0.0634383  
C164     C      0.242450000000     0.731530000000     0.465870000000    -0.0567891  
C165     C      0.177750000000     0.617560000000     0.511840000000     0.0923382  
C166     C      0.123610000000     0.674610000000     0.508440000000     0.00993158 
C167     C      0.276320000000     0.768970000000     0.535200000000    -0.0574077  
C168     C      0.183990000000     0.609360000000     0.557810000000    -0.181213   
C169     C      0.650740000000     0.500340000000     0.205890000000    -0.0392052  
C170     C      0.854710000000     0.487200000000     0.302760000000    -0.0360963  
C171     C      0.833060000000     0.508370000000     0.386900000000     0.00791721 
C172     C      0.888250000000     0.503120000000     0.331520000000     0.00837065 
C173     C      0.767270000000     0.531680000000     0.262590000000    -0.054994   
C174     C      0.738010000000     0.452740000000     0.245950000000    -0.0547651  
C175     C      0.783790000000     0.498050000000     0.283680000000     0.0601402  
C176     C      0.802810000000     0.491820000000     0.355210000000    -0.0359319  
C177     C      0.721220000000     0.486430000000     0.225170000000     0.0593389  
C178     C      0.702080000000     0.488960000000     0.153420000000    -0.0630637  
C179     C      0.736360000000     0.526060000000     0.233460000000    -0.0565252  
C180     C      0.670070000000     0.472760000000     0.122840000000     0.0921349  
C181     C      0.616190000000     0.485710000000     0.177630000000     0.0117149  
C182     C      0.769100000000     0.458340000000     0.274900000000    -0.0572041  
C183     C      0.670660000000     0.425600000000     0.121650000000    -0.185972   
C184     C      0.152470000000     0.509120000000     0.304180000000    -0.0392632  
C185     C      0.354660000000     0.515970000000     0.205290000000    -0.0361918  
C186     C      0.331480000000     0.502690000000     0.119960000000     0.00818471 
C187     C      0.386850000000     0.499930000000     0.175280000000     0.00772611 
C188     C      0.265180000000     0.474060000000     0.243060000000    -0.055438   
C189     C      0.241900000000     0.553210000000     0.266740000000    -0.0549088  
C190     C      0.283490000000     0.508100000000     0.224280000000     0.0600822  
C191     C      0.302250000000     0.518310000000     0.153110000000    -0.0362733  
C192     C      0.223410000000     0.519140000000     0.285340000000     0.0591441  
C193     C      0.204850000000     0.510610000000     0.356710000000    -0.0643191  
C194     C      0.235440000000     0.479380000000     0.273390000000    -0.056636   
C195     C      0.174450000000     0.525390000000     0.389580000000     0.0938573  
C196     C      0.119410000000     0.523570000000     0.334070000000     0.0107323  
C197     C      0.271760000000     0.547880000000     0.236500000000    -0.0573921  
C198     C      0.179840000000     0.571510000000     0.398020000000    -0.184267   
C199     C      0.151580000000     0.502410000000     0.705010000000    -0.0385872  
C200     C      0.353990000000     0.495390000000     0.803770000000    -0.0356541  
C201     C      0.331240000000     0.513430000000     0.888340000000     0.00875384 
C202     C      0.386660000000     0.511890000000     0.833050000000     0.00766155 
C203     C      0.265640000000     0.537220000000     0.763700000000    -0.0551687  
C204     C      0.239770000000     0.457500000000     0.745170000000    -0.0547716  
C205     C      0.283000000000     0.503860000000     0.784500000000     0.0604956  
C206     C      0.301590000000     0.496950000000     0.856040000000    -0.0359622  
C207     C      0.222150000000     0.490890000000     0.724640000000     0.0594303  
C208     C      0.203850000000     0.494610000000     0.652840000000    -0.0640255  
C209     C      0.235550000000     0.530930000000     0.733910000000    -0.0565215  
C210     C      0.172790000000     0.478510000000     0.621270000000     0.0941461  
C211     C      0.117950000000     0.487140000000     0.676160000000     0.0102571  
C212     C      0.270030000000     0.463770000000     0.774800000000    -0.0573039  
C213     C      0.175650000000     0.431610000000     0.617220000000    -0.185361   
C214     C      0.852280000000     0.496090000000     0.702890000000    -0.0382255  
C215     C      0.652210000000     0.517700000000     0.803890000000    -0.0357486  
C216     C      0.673830000000     0.497160000000     0.888200000000     0.00683706 
C217     C      0.618470000000     0.503510000000     0.833160000000     0.00760121 
C218     C      0.736340000000     0.469550000000     0.762120000000    -0.0550286  
C219     C      0.768380000000     0.547170000000     0.744470000000    -0.0544735  
C220     C      0.722130000000     0.503830000000     0.783860000000     0.060349   
C221     C      0.704570000000     0.511390000000     0.855750000000    -0.0355705  
C222     C      0.782880000000     0.512840000000     0.723030000000     0.0591479  
C223     C      0.801160000000     0.508770000000     0.651000000000    -0.0623768  
C224     C      0.766380000000     0.473880000000     0.731870000000    -0.0563958  
C225     C      0.833100000000     0.524130000000     0.619810000000     0.0899724  
C226     C      0.887170000000     0.510620000000     0.675240000000     0.00912464 
C227     C      0.738190000000     0.542880000000     0.774550000000    -0.0572807  
C228     C      0.830940000000     0.571080000000     0.615310000000    -0.18331    
C229     C      0.860310000000     0.800370000000     0.995630000000    -0.0206357  
C230     C      0.656950000000     0.703450000000     0.007500000000    -0.0536363  
C231     C      0.676320000000     0.617700000000     0.990480000000     0.0226763  
C232     C      0.622860000000     0.674660000000     0.993130000000     0.0226571  
C233     C      0.745640000000     0.739870000000     0.962740000000    -0.0601921  
C234     C      0.772620000000     0.759930000000     0.041530000000    -0.049515   
C235     C      0.728180000000     0.720270000000     0.996710000000     0.0693765  
C236     C      0.707710000000     0.649320000000     0.004990000000    -0.0535196  
C237     C      0.790020000000     0.779570000000     0.007580000000     0.0509135  
C238     C      0.807090000000     0.851650000000     0.001960000000    -0.070013   
C239     C      0.776290000000     0.769370000000     0.967990000000    -0.0468379  
C240     C      0.836910000000     0.884070000000     0.018570000000     0.0937816  
C241     C      0.893300000000     0.829950000000     0.011110000000    -0.00540772 
C242     C      0.741920000000     0.730530000000     0.036300000000    -0.0666746  
C243     C      0.831930000000     0.889060000000     0.065090000000    -0.185082   
C244     C      0.849670000000     0.202970000000     0.024250000000    -0.0372398  
C245     C      0.646500000000     0.300040000000     0.007810000000    -0.0428275  
C246     C      0.671470000000     0.386170000000     0.009510000000    -0.00584347 
C247     C      0.615110000000     0.332360000000     0.020920000000     0.00993401 
C248     C      0.735790000000     0.265050000000     0.051010000000    -0.0546862  
C249     C      0.759920000000     0.235710000000     0.974240000000    -0.0495552  
C250     C      0.717610000000     0.281060000000     0.015550000000     0.0546883  
C251     C      0.699340000000     0.350700000000     0.997090000000    -0.0192007  
C252     C      0.778840000000     0.220490000000     0.009610000000     0.0541848  
C253     C      0.798880000000     0.149340000000     0.018750000000    -0.061602   
C254     C      0.765980000000     0.234740000000     0.048210000000    -0.0563296  
C255     C      0.830060000000     0.117890000000     0.002610000000     0.0860504  
C256     C      0.884110000000     0.174720000000     0.009690000000     0.00484376 
C257     C      0.729350000000     0.265560000000     0.977050000000    -0.0522444  
C258     C      0.824830000000     0.111920000000     0.956170000000    -0.177052   
C259     C      0.157770000000     0.808870000000     0.020570000000    -0.0363853  
C260     C      0.359520000000     0.709540000000     0.018230000000    -0.0432982  
C261     C      0.335520000000     0.624850000000     0.034330000000     0.0113301  
C262     C      0.391510000000     0.678730000000     0.033210000000     0.0101696  
C263     C      0.270600000000     0.750170000000     0.059470000000    -0.0542994  
C264     C      0.247600000000     0.770750000000     0.979550000000    -0.049568   
C265     C      0.288870000000     0.729910000000     0.026310000000     0.0545574  
C266     C      0.305830000000     0.657930000000     0.019420000000    -0.0437379  
C267     C      0.229130000000     0.790770000000     0.012690000000     0.054531   
C268     C      0.209120000000     0.862330000000     0.018530000000    -0.0619743  
C269     C      0.240950000000     0.780420000000     0.052850000000    -0.0562309  
C270     C      0.179080000000     0.893920000000     0.000540000000     0.0871938  
C271     C      0.124750000000     0.837160000000     0.003190000000     0.00333127 
C272     C      0.277260000000     0.740590000000     0.986150000000    -0.0515503  
C273     C      0.187220000000     0.900310000000     0.954620000000    -0.177306   
C274     C      0.299240000000     0.362470000000     0.998180000000    -0.0339845  
C275     C      0.200260000000     0.159570000000     0.991660000000    -0.018266   
C276     C      0.114600000000     0.180500000000     0.006240000000    -0.00724159 
C277     C      0.171260000000     0.126510000000     0.007960000000    -0.00681454 
C278     C      0.237360000000     0.249410000000     0.033050000000    -0.0622884  
C279     C      0.258980000000     0.273700000000     0.953810000000    -0.054553   
C280     C      0.217770000000     0.231320000000     0.999400000000     0.0707025  
C281     C      0.146770000000     0.210860000000     0.990430000000    -0.0180299  
C282     C      0.278520000000     0.291830000000     0.987480000000     0.0643506  
C283     C      0.350480000000     0.308830000000     0.993840000000    -0.0574324  
C284     C      0.267530000000     0.279330000000     0.027300000000    -0.060951   
C285     C      0.383530000000     0.338960000000     0.978720000000     0.091839   
C286     C      0.329450000000     0.395280000000     0.983520000000     0.0151267  
C287     C      0.228910000000     0.243630000000     0.959570000000    -0.059777   
C288     C      0.390280000000     0.334590000000     0.932350000000    -0.184215   
C289     C      0.853260000000     0.990260000000     0.807260000000    -0.0312525  
C290     C      0.689830000000     0.045160000000     0.666630000000    -0.0375021  
C291     C      0.618090000000     0.992850000000     0.671730000000     0.0182159  
C292     C      0.667290000000     0.034170000000     0.627010000000     0.0110381  
C293     C      0.760720000000     0.011590000000     0.717200000000    -0.0534476  
C294     C      0.738460000000     0.002210000000     0.798950000000    -0.0602695  
C295     C      0.718840000000     0.011580000000     0.727340000000     0.0568393  
C296     C      0.645890000000     0.002760000000     0.707980000000    -0.0478729  
C297     C      0.780340000000     0.003310000000     0.789030000000     0.0563386  
C298     C      0.807890000000     0.022620000000     0.856080000000    -0.0667348  
C299     C      0.790970000000     0.009160000000     0.747430000000    -0.0551576  
C300     C      0.830060000000     0.003560000000     0.892810000000     0.0883337  
C301     C      0.880980000000     0.974030000000     0.841680000000     0.0065664  
C302     C      0.708380000000     0.008170000000     0.769240000000    -0.0527605  
C303     C      0.808150000000     0.964690000000     0.908090000000    -0.180222   
C304     C      0.144060000000     0.027210000000     0.799790000000    -0.044248   
C305     C      0.306570000000     0.980670000000     0.654860000000    -0.0349192  
C306     C      0.375560000000     0.036740000000     0.658910000000     0.00917805 
C307     C      0.329500000000     0.991570000000     0.615370000000     0.0179023  
C308     C      0.234870000000     0.011090000000     0.706530000000    -0.0542375  
C309     C      0.258700000000     0.020040000000     0.787910000000    -0.0545641  
C310     C      0.276920000000     0.012980000000     0.715770000000     0.0572722  
C311     C      0.348690000000     0.026060000000     0.695430000000    -0.0423713  
C312     C      0.216770000000     0.017110000000     0.778880000000     0.0575146  
C313     C      0.191790000000     0.993550000000     0.845380000000    -0.0559533  
C314     C      0.205280000000     0.011560000000     0.737510000000    -0.0555328  
C315     C      0.171370000000     0.011010000000     0.883750000000     0.0880988  
C316     C      0.117520000000     0.041580000000     0.835940000000     0.00983798 
C317     C      0.288240000000     0.016090000000     0.757470000000    -0.0551712  
C318     C      0.193910000000     0.049370000000     0.899410000000    -0.18289    
C319     C      0.208230000000     0.001810000000     0.147010000000    -0.0449788  
C320     C      0.308520000000     0.010210000000     0.347060000000    -0.0541366  
C321     C      0.394570000000     0.997600000000     0.326450000000     0.0257418  
C322     C      0.337670000000     0.995020000000     0.380240000000     0.026997   
C323     C      0.272710000000     0.967110000000     0.258140000000    -0.048981   
C324     C      0.248360000000     0.046030000000     0.234690000000    -0.0551599  
C325     C      0.291550000000     0.001420000000     0.275860000000     0.0512432  
C326     C      0.362140000000     0.012330000000     0.296030000000    -0.048039   
C327     C      0.229400000000     0.011730000000     0.217140000000     0.054679   
C328     C      0.157640000000     0.002280000000     0.201160000000    -0.0683782  
C329     C      0.241840000000     0.972080000000     0.228980000000    -0.0525003  
C330     C      0.123670000000     0.017670000000     0.172460000000     0.0897453  
C331     C      0.177420000000     0.016920000000     0.115250000000     0.0125594  
C332     C      0.279200000000     0.041070000000     0.263880000000    -0.0553623  
C333     C      0.114800000000     0.063440000000     0.179810000000    -0.178803   
C334     C      0.660460000000     0.989710000000     0.309390000000    -0.0288496  
C335     C      0.861300000000     0.013670000000     0.210870000000    -0.0481057  
C336     C      0.836570000000     0.998550000000     0.126270000000     0.0246055  
C337     C      0.893640000000     0.999590000000     0.180110000000     0.0245135  
C338     C      0.776540000000     0.965640000000     0.251080000000    -0.0486366  
C339     C      0.745750000000     0.042760000000     0.272740000000    -0.0555061  
C340     C      0.791410000000     0.000880000000     0.231480000000     0.0513555  
C341     C      0.807550000000     0.012600000000     0.160080000000    -0.0480724  
C342     C      0.730210000000     0.007460000000     0.291660000000     0.0548189  
C343     C      0.710260000000     0.001150000000     0.362880000000    -0.0677046  
C344     C      0.746290000000     0.968790000000     0.281150000000    -0.0528714  
C345     C      0.677750000000     0.016540000000     0.393260000000     0.0893165  
C346     C      0.624950000000     0.003660000000     0.336400000000     5.88066e-05
C347     C      0.776270000000     0.039660000000     0.242990000000    -0.0551972  
C348     C      0.679950000000     0.063490000000     0.397530000000    -0.178051   
C349     C      0.008140000000     0.154440000000     0.803970000000    -0.0555086  
C350     C      0.006630000000     0.357520000000     0.705440000000    -0.0421587  
C351     C      0.014570000000     0.333150000000     0.619810000000    -0.00385194 
C352     C      0.022270000000     0.388870000000     0.674280000000     0.00868051 
C353     C      0.045390000000     0.265900000000     0.741540000000    -0.0556866  
C354     C      0.966430000000     0.246170000000     0.768210000000    -0.0481644  
C355     C      0.011590000000     0.285900000000     0.724240000000     0.0557881  
C356     C      0.998940000000     0.304910000000     0.653690000000    -0.0202792  
C357     C      0.000190000000     0.225890000000     0.785230000000     0.0500071  
C358     C      0.009700000000     0.207040000000     0.856280000000    -0.0742722  
C359     C      0.039890000000     0.236190000000     0.771910000000    -0.0543737  
C360     C      0.993550000000     0.177660000000     0.889380000000     0.105106   
C361     C      0.992470000000     0.122000000000     0.833950000000     0.0243766  
C362     C      0.971940000000     0.276040000000     0.738010000000    -0.0532852  
C363     C      0.948120000000     0.186020000000     0.898350000000    -0.186998   
C364     C      0.008810000000     0.706980000000     0.652170000000    -0.0484639  
C365     C      0.996590000000     0.804630000000     0.855220000000    -0.0184417  
C366     C      0.013970000000     0.889810000000     0.833610000000    -0.00757838 
C367     C      0.011850000000     0.833940000000     0.888490000000    -0.00745643 
C368     C      0.040410000000     0.765630000000     0.767400000000    -0.0498914  
C369     C      0.961600000000     0.746920000000     0.739580000000    -0.0597702  
C370     C      0.006650000000     0.786110000000     0.784230000000     0.0522491  
C371     C      0.998680000000     0.857540000000     0.803280000000    -0.0183308  
C372     C      0.995390000000     0.726730000000     0.722480000000     0.0690769  
C373     C      0.999080000000     0.654770000000     0.704170000000    -0.0568271  
C374     C      0.034960000000     0.736040000000     0.736870000000    -0.0659211  
C375     C      0.982940000000     0.623470000000     0.672850000000     0.0909908  
C376     C      0.993990000000     0.678300000000     0.618120000000     0.0217152  
C377     C      0.967020000000     0.776300000000     0.770300000000    -0.047847   
C378     C      0.936030000000     0.620640000000     0.674860000000    -0.184017   
C379     C      0.020290000000     0.805430000000     0.152850000000    -0.0451494  
C380     C      0.025860000000     0.706260000000     0.354990000000    -0.034092   
C381     C      0.009040000000     0.621250000000     0.331940000000     0.00239596 
C382     C      0.009070000000     0.676930000000     0.387480000000     0.00118167 
C383     C      0.984310000000     0.745250000000     0.265780000000    -0.0499319  
C384     C      0.063730000000     0.766650000000     0.241890000000    -0.053947   
C385     C      0.017820000000     0.725480000000     0.283880000000     0.0553752  
C386     C      0.025750000000     0.653870000000     0.302670000000    -0.0344545  
C387     C      0.030190000000     0.786310000000     0.223680000000     0.0537461  
C388     C      0.023190000000     0.858040000000     0.205440000000    -0.0708915  
C389     C      0.990280000000     0.775450000000     0.235980000000    -0.0510828  
C390     C      0.037430000000     0.890890000000     0.174670000000     0.0964143  
C391     C      0.034600000000     0.835370000000     0.119740000000     0.0116705  
C392     C      0.057740000000     0.736490000000     0.271800000000    -0.0567943  
C393     C      0.083580000000     0.899070000000     0.178730000000    -0.186534   
C394     C      0.999880000000     0.205780000000     0.153430000000    -0.034291   
C395     C      0.991260000000     0.304260000000     0.355800000000    -0.0190828  
C396     C      0.007880000000     0.389390000000     0.333250000000    -0.0060025  
C397     C      0.006630000000     0.333900000000     0.388710000000    -0.00600964 
C398     C      0.035010000000     0.266010000000     0.266990000000    -0.0504354  
C399     C      0.956100000000     0.243620000000     0.242380000000    -0.0602445  
C400     C      0.001060000000     0.285190000000     0.284920000000     0.0517084  
C401     C      0.992440000000     0.356680000000     0.303420000000    -0.0190184  
C402     C      0.990060000000     0.224490000000     0.224410000000     0.0684279  
C403     C      0.998500000000     0.152980000000     0.205700000000    -0.0578094  
C404     C      0.029700000000     0.235880000000     0.236980000000    -0.0665547  
C405     C      0.983390000000     0.120200000000     0.175360000000     0.0924173  
C406     C      0.985110000000     0.175990000000     0.120380000000     0.015605   
C407     C      0.961410000000     0.273740000000     0.272400000000    -0.0481397  
C408     C      0.937390000000     0.112040000000     0.181030000000    -0.183988   
Eu1      Eu     0.005380000000     0.004880000000     0.077550000000     3.45102    
Eu2      Eu     0.006380000000     0.932350000000     0.004980000000     3.02149    
Eu3      Eu     0.001110000000     0.078250000000     0.004500000000     3.45809    
Eu4      Eu     0.931080000000     0.003340000000     0.007280000000     3.01659    
Eu5      Eu     0.076410000000     0.007260000000     0.002590000000     3.46224    
Eu6      Eu     0.002060000000     0.005620000000     0.932030000000     3.01408    
Eu7      Eu     0.003660000000     0.505930000000     0.431360000000     3.43713    
Eu8      Eu     0.005400000000     0.578570000000     0.503810000000     3.02851    
Eu9      Eu     0.002510000000     0.432600000000     0.504570000000     3.44613    
Eu10     Eu     0.931100000000     0.506570000000     0.503560000000     3.05913    
Eu11     Eu     0.076530000000     0.504860000000     0.504940000000     3.52748    
Eu12     Eu     0.003640000000     0.505460000000     0.577130000000     3.04963    
Eu13     Eu     0.506140000000     0.002990000000     0.430200000000     3.46809    
Eu14     Eu     0.430660000000     0.003650000000     0.499450000000     3.01421    
Eu15     Eu     0.575920000000     0.007990000000     0.506440000000     3.4816     
Eu16     Eu     0.505810000000     0.932910000000     0.505010000000     3.06179    
Eu17     Eu     0.500710000000     0.078760000000     0.500670000000     3.51242    
Eu18     Eu     0.500310000000     0.008640000000     0.575570000000     3.01798    
Eu19     Eu     0.501650000000     0.433430000000     0.001700000000     3.4617     
Eu20     Eu     0.575830000000     0.504270000000     0.005040000000     3.0043     
Eu21     Eu     0.430210000000     0.508400000000     0.003920000000     3.46356    
Eu22     Eu     0.502870000000     0.508370000000     0.931720000000     3.06329    
Eu23     Eu     0.503000000000     0.504540000000     0.077180000000     3.52201    
Eu24     Eu     0.504520000000     0.579380000000     0.006980000000     3.03284    
H1       H      0.969590000000     0.965730000000     0.073920000000    -0.167219   
H2       H      0.062360000000     0.067390000000     0.063140000000     0.408827   
H3       H      0.963110000000     0.071940000000     0.968430000000    -0.181589   
H4       H      0.071960000000     0.969880000000     0.965080000000    -0.165981   
H5       H      0.966940000000     0.543940000000     0.435960000000    -0.168886   
H6       H      0.063130000000     0.445500000000     0.444470000000     0.408603   
H7       H      0.965580000000     0.438330000000     0.541860000000    -0.176681   
H8       H      0.072030000000     0.541800000000     0.542670000000    -0.189888   
H9       H      0.470000000000     0.964300000000     0.434470000000    -0.17007    
H10      H      0.563720000000     0.065400000000     0.443900000000     0.41157    
H11      H      0.570450000000     0.971750000000     0.544640000000    -0.183805   
H12      H      0.461690000000     0.074170000000     0.536400000000    -0.180885   
H13      H      0.539400000000     0.438660000000     0.965030000000    -0.1749     
H14      H      0.441410000000     0.445870000000     0.061370000000     0.409339   
H15      H      0.435790000000     0.547400000000     0.968110000000    -0.166029   
H16      H      0.541420000000     0.541240000000     0.073840000000    -0.183426   
H17      H      0.564140000000     0.284220000000     0.218920000000     0.0388096  
H18      H      0.501600000000     0.234080000000     0.356270000000     0.0337684  
H19      H      0.513570000000     0.140550000000     0.266790000000     0.0392816  
H20      H      0.458860000000     0.390170000000     0.175630000000     0.0250483  
H21      H      0.540140000000     0.181660000000     0.390480000000     0.0243008  
H22      H      0.499480000000     0.269610000000     0.137620000000     0.0326937  
H23      H      0.494680000000     0.359080000000     0.231690000000     0.033526   
H24      H      0.512410000000     0.325330000000     0.085740000000     0.0334846  
H25      H      0.501910000000     0.087030000000     0.321740000000     0.016825   
H26      H      0.571970000000     0.231600000000     0.272200000000     0.0410692  
H27      H      0.488990000000     0.180600000000     0.410400000000     0.0343624  
H28      H      0.433110000000     0.268020000000     0.222310000000     0.0421174  
H29      H      0.459410000000     0.199950000000     0.345740000000     0.0370223  
H30      H      0.507880000000     0.414590000000     0.179750000000     0.0345372  
H31      H      0.543630000000     0.301130000000     0.148190000000     0.0361747  
H32      H      0.540880000000     0.352520000000     0.202180000000     0.0363574  
H33      H      0.441020000000     0.214960000000     0.275230000000     0.0390658  
H34      H      0.466840000000     0.145930000000     0.295240000000     0.0420135  
H35      H      0.462130000000     0.325590000000     0.107860000000     0.0251063  
H36      H      0.571120000000     0.099080000000     0.295070000000     0.0569969  
H37      H      0.573910000000     0.089750000000     0.349360000000     0.0564421  
H38      H      0.579080000000     0.141270000000     0.330210000000     0.0652486  
H39      H      0.452190000000     0.789350000000     0.292530000000     0.0398311  
H40      H      0.498410000000     0.734750000000     0.151230000000     0.0339667  
H41      H      0.489250000000     0.641220000000     0.241160000000     0.0403226  
H42      H      0.568300000000     0.885190000000     0.332610000000     0.0321795  
H43      H      0.455800000000     0.682260000000     0.121150000000     0.0294451  
H44      H      0.520950000000     0.769650000000     0.369850000000     0.0337587  
H45      H      0.528540000000     0.859070000000     0.275760000000     0.034038   
H46      H      0.514970000000     0.824990000000     0.422580000000     0.0354544  
H47      H      0.497080000000     0.587600000000     0.185720000000     0.0154623  
H48      H      0.436680000000     0.737380000000     0.240240000000     0.0418093  
H49      H      0.504590000000     0.682040000000     0.096060000000     0.0344698  
H50      H      0.581030000000     0.763290000000     0.280060000000     0.0427921  
H51      H      0.540440000000     0.699600000000     0.158610000000     0.0371349  
H52      H      0.522630000000     0.915330000000     0.327500000000     0.0359657  
H53      H      0.478190000000     0.803680000000     0.361380000000     0.0374918  
H54      H      0.482640000000     0.856020000000     0.306340000000     0.0375975  
H55      H      0.565520000000     0.711210000000     0.227910000000     0.039034   
H56      H      0.534760000000     0.645280000000     0.210640000000     0.0420429  
H57      H      0.563210000000     0.824670000000     0.396270000000     0.0321902  
H58      H      0.429420000000     0.601420000000     0.215240000000     0.0598012  
H59      H      0.424320000000     0.591300000000     0.161330000000     0.0770793  
H60      H      0.420810000000     0.643290000000     0.179930000000     0.0712479  
H61      H      0.561960000000     0.733370000000     0.790390000000     0.0394471  
H62      H      0.503750000000     0.777130000000     0.649850000000     0.0339674  
H63      H      0.496240000000     0.870800000000     0.739520000000     0.0408707  
H64      H      0.462660000000     0.619940000000     0.832360000000     0.0333564  
H65      H      0.539060000000     0.832710000000     0.617950000000     0.0311689  
H66      H      0.496770000000     0.742890000000     0.869640000000     0.0344087  
H67      H      0.496870000000     0.652610000000     0.776270000000     0.0339599  
H68      H      0.513710000000     0.688000000000     0.921820000000     0.0353526  
H69      H      0.484980000000     0.923150000000     0.683120000000     0.0172108  
H70      H      0.567010000000     0.786020000000     0.736830000000     0.0420187  
H71      H      0.489550000000     0.829860000000     0.594550000000     0.0345474  
H72      H      0.430240000000     0.737260000000     0.781700000000     0.0434094  
H73      H      0.457330000000     0.806280000000     0.656430000000     0.0363778  
H74      H      0.513000000000     0.598330000000     0.828730000000     0.0349037  
H75      H      0.542590000000     0.713890000000     0.859130000000     0.0364915  
H76      H      0.542570000000     0.662020000000     0.805780000000     0.0365477  
H77      H      0.435380000000     0.789890000000     0.727900000000     0.039501   
H78      H      0.453890000000     0.860480000000     0.706050000000     0.0425746  
H79      H      0.463110000000     0.685510000000     0.900730000000     0.0340726  
H80      H      0.551380000000     0.918700000000     0.718050000000     0.0599385  
H81      H      0.559340000000     0.928400000000     0.664410000000     0.0756468  
H82      H      0.568060000000     0.877780000000     0.684400000000     0.0714732  
H83      H      0.437830000000     0.295650000000     0.774260000000     0.038545   
H84      H      0.505450000000     0.244580000000     0.635490000000     0.0338079  
H85      H      0.491820000000     0.156030000000     0.729610000000     0.0400732  
H86      H      0.539100000000     0.402060000000     0.825850000000     0.0331636  
H87      H      0.467620000000     0.190920000000     0.602670000000     0.0291677  
H88      H      0.501010000000     0.277730000000     0.855880000000     0.0332627  
H89      H      0.504900000000     0.373160000000     0.767840000000     0.033851   
H90      H      0.485960000000     0.329890000000     0.911070000000     0.0324772  
H91      H      0.502460000000     0.099560000000     0.677870000000     0.0167274  
H92      H      0.432440000000     0.244060000000     0.719690000000     0.0411451  
H93      H      0.519300000000     0.187450000000     0.584560000000     0.0349059  
H94      H      0.569280000000     0.283150000000     0.772950000000     0.0432226  
H95      H      0.547280000000     0.210980000000     0.648650000000     0.0366909  
H96      H      0.489170000000     0.424750000000     0.823440000000     0.034483   
H97      H      0.456390000000     0.308960000000     0.846620000000     0.0341234  
H98      H      0.458580000000     0.363440000000     0.796250000000     0.035328   
H99      H      0.563800000000     0.231140000000     0.718610000000     0.0393141  
H100     H      0.538720000000     0.159490000000     0.701100000000     0.0427984  
H101     H      0.536580000000     0.332050000000     0.890160000000     0.0326926  
H102     H      0.433410000000     0.113380000000     0.702470000000     0.0586959  
H103     H      0.430800000000     0.104140000000     0.648090000000     0.0722591  
H104     H      0.426910000000     0.155640000000     0.667070000000     0.0703643  
H105     H      0.715690000000     0.233620000000     0.568980000000     0.0390254  
H106     H      0.858500000000     0.275130000000     0.507800000000     0.0340199  
H107     H      0.768870000000     0.369210000000     0.507810000000     0.0399946  
H108     H      0.678610000000     0.118400000000     0.471780000000     0.02376    
H109     H      0.892020000000     0.330300000000     0.542650000000     0.0293426  
H110     H      0.638260000000     0.242300000000     0.498700000000     0.0332555  
H111     H      0.731170000000     0.152260000000     0.509350000000     0.0330167  
H112     H      0.584990000000     0.187620000000     0.514300000000     0.0342592  
H113     H      0.824350000000     0.421520000000     0.494270000000     0.016322   
H114     H      0.770120000000     0.285410000000     0.574380000000     0.0414989  
H115     H      0.913190000000     0.327800000000     0.492090000000     0.0346488  
H116     H      0.726750000000     0.235800000000     0.437370000000     0.0418024  
H117     H      0.849670000000     0.305400000000     0.462440000000     0.0366667  
H118     H      0.677470000000     0.098440000000     0.522910000000     0.0344413  
H119     H      0.645490000000     0.214980000000     0.546150000000     0.0362358  
H120     H      0.697840000000     0.163200000000     0.552000000000     0.0362753  
H121     H      0.780700000000     0.288090000000     0.442750000000     0.0389148  
H122     H      0.799540000000     0.359900000000     0.463180000000     0.0422374  
H123     H      0.608850000000     0.184380000000     0.465030000000     0.0249897  
H124     H      0.793430000000     0.413760000000     0.563130000000     0.0591207  
H125     H      0.846590000000     0.427050000000     0.567340000000     0.0760919  
H126     H      0.830620000000     0.374870000000     0.576460000000     0.0704596  
H127     H      0.728600000000     0.793290000000     0.445910000000     0.0395828  
H128     H      0.868260000000     0.741120000000     0.503710000000     0.0347194  
H129     H      0.774100000000     0.651630000000     0.501870000000     0.0396952  
H130     H      0.683520000000     0.901510000000     0.548480000000     0.0324532  
H131     H      0.897960000000     0.685740000000     0.465720000000     0.0318183  
H132     H      0.650390000000     0.777730000000     0.513800000000     0.0337654  
H133     H      0.740140000000     0.871650000000     0.512320000000     0.034891   
H134     H      0.595590000000     0.830150000000     0.500470000000     0.0353584  
H135     H      0.827320000000     0.596100000000     0.512680000000     0.0140116  
H136     H      0.780990000000     0.739800000000     0.438090000000     0.0421363  
H137     H      0.920570000000     0.685440000000     0.515720000000     0.0355077  
H138     H      0.736870000000     0.782080000000     0.577280000000     0.0434094  
H139     H      0.858780000000     0.709430000000     0.547970000000     0.035747   
H140     H      0.685040000000     0.924140000000     0.498440000000     0.0367089  
H141     H      0.658130000000     0.807910000000     0.468140000000     0.0369645  
H142     H      0.709810000000     0.861820000000     0.467240000000     0.0372307  
H143     H      0.789200000000     0.728390000000     0.569390000000     0.0387753  
H144     H      0.805910000000     0.657730000000     0.546260000000     0.0395084  
H145     H      0.619260000000     0.833800000000     0.549900000000     0.0318854  
H146     H      0.795800000000     0.606490000000     0.444970000000     0.059635   
H147     H      0.848840000000     0.592950000000     0.439020000000     0.0751372  
H148     H      0.833110000000     0.645490000000     0.432110000000     0.071601   
H149     H      0.290890000000     0.223410000000     0.548970000000     0.039207   
H150     H      0.233650000000     0.361840000000     0.489710000000     0.0332957  
H151     H      0.143850000000     0.271740000000     0.516270000000     0.0397556  
H152     H      0.383900000000     0.174380000000     0.435010000000     0.0320146  
H153     H      0.186790000000     0.396170000000     0.534580000000     0.0276999  
H154     H      0.268380000000     0.141040000000     0.484980000000     0.0335118  
H155     H      0.358540000000     0.233730000000     0.471550000000     0.0337024  
H156     H      0.323140000000     0.087990000000     0.493840000000     0.0349913  
H157     H      0.088780000000     0.326080000000     0.511900000000     0.0142694  
H158     H      0.240130000000     0.277450000000     0.562030000000     0.0410251  
H159     H      0.178540000000     0.415670000000     0.483970000000     0.0282737  
H160     H      0.260540000000     0.226030000000     0.420440000000     0.0423018  
H161     H      0.194250000000     0.350220000000     0.452830000000     0.0336909  
H162     H      0.414060000000     0.181610000000     0.480310000000     0.0353279  
H163     H      0.302630000000     0.151650000000     0.526990000000     0.0372023  
H164     H      0.355440000000     0.205760000000     0.519120000000     0.0365998  
H165     H      0.209140000000     0.279620000000     0.433720000000     0.0382596  
H166     H      0.142360000000     0.299280000000     0.468680000000     0.0397784  
H167     H      0.322600000000     0.111330000000     0.444040000000     0.032151   
H168     H      0.111650000000     0.301670000000     0.579020000000     0.0600047  
H169     H      0.102750000000     0.356310000000     0.581660000000     0.072016   
H170     H      0.154260000000     0.337060000000     0.579280000000     0.0689885  
H171     H      0.288940000000     0.783300000000     0.562310000000     0.0392306  
H172     H      0.149940000000     0.735080000000     0.503570000000     0.0338221  
H173     H      0.239880000000     0.641330000000     0.506930000000     0.0394471  
H174     H      0.333130000000     0.888950000000     0.456240000000     0.0335438  
H175     H      0.117320000000     0.681150000000     0.541280000000     0.0302456  
H176     H      0.369480000000     0.769070000000     0.498940000000     0.0336062  
H177     H      0.276010000000     0.858980000000     0.491480000000     0.0341654  
H178     H      0.421350000000     0.824690000000     0.512740000000     0.0348145  
H179     H      0.184470000000     0.588370000000     0.495410000000     0.0143864  
H180     H      0.235340000000     0.731040000000     0.570030000000     0.0416415  
H181     H      0.095260000000     0.681900000000     0.491010000000     0.0336921  
H182     H      0.283290000000     0.769640000000     0.431020000000     0.0430343  
H183     H      0.158550000000     0.702870000000     0.459490000000     0.0357303  
H184     H      0.327790000000     0.914350000000     0.504690000000     0.0363713  
H185     H      0.358210000000     0.800930000000     0.542680000000     0.0363032  
H186     H      0.304590000000     0.852750000000     0.538330000000     0.0365746  
H187     H      0.229580000000     0.717370000000     0.438790000000     0.0385707  
H188     H      0.209010000000     0.648740000000     0.462070000000     0.0394417  
H189     H      0.400410000000     0.824660000000     0.461970000000     0.0329232  
H190     H      0.215680000000     0.598440000000     0.563720000000     0.058181   
H191     H      0.162530000000     0.585170000000     0.568520000000     0.0713068  
H192     H      0.178460000000     0.637670000000     0.575980000000     0.0698342  
H193     H      0.781470000000     0.431810000000     0.290560000000     0.0390727  
H194     H      0.641950000000     0.493370000000     0.238090000000     0.0338986  
H195     H      0.732330000000     0.474650000000     0.146690000000     0.0402973  
H196     H      0.828170000000     0.541990000000     0.389880000000     0.0282374  
H197     H      0.608040000000     0.453590000000     0.185840000000     0.0303741  
H198     H      0.862940000000     0.495980000000     0.270850000000     0.0340385  
H199     H      0.771800000000     0.503830000000     0.362750000000     0.0332056  
H200     H      0.916640000000     0.485170000000     0.325700000000     0.0359722  
H201     H      0.679060000000     0.483960000000     0.091930000000     0.0163808  
H202     H      0.726890000000     0.422050000000     0.239670000000     0.0412963  
H203     H      0.588800000000     0.505100000000     0.183580000000     0.0330157  
H204     H      0.778370000000     0.562380000000     0.268890000000     0.0428807  
H205     H      0.654060000000     0.534250000000     0.202880000000     0.0367743  
H206     H      0.825730000000     0.494210000000     0.417020000000     0.0344117  
H207     H      0.853580000000     0.453040000000     0.304370000000     0.0367327  
H208     H      0.801780000000     0.457680000000     0.357280000000     0.0364392  
H209     H      0.724220000000     0.552550000000     0.217550000000     0.039212   
H210     H      0.705520000000     0.522750000000     0.149260000000     0.042667   
H211     H      0.894950000000     0.535660000000     0.323650000000     0.0314607  
H212     H      0.700760000000     0.414430000000     0.110390000000     0.0612883  
H213     H      0.646260000000     0.414220000000     0.100860000000     0.0739429  
H214     H      0.665080000000     0.412380000000     0.152510000000     0.0718245  
H215     H      0.285600000000     0.574690000000     0.222630000000     0.0387331  
H216     H      0.144110000000     0.519950000000     0.272940000000     0.0334195  
H217     H      0.236190000000     0.521670000000     0.364470000000     0.0399727  
H218     H      0.324810000000     0.469720000000     0.114040000000     0.0251882  
H219     H      0.113930000000     0.556920000000     0.329190000000     0.0307829  
H220     H      0.362470000000     0.504530000000     0.236460000000     0.0328041  
H221     H      0.270610000000     0.508510000000     0.144980000000     0.0330076  
H222     H      0.416540000000     0.514960000000     0.182590000000     0.0327273  
H223     H      0.182200000000     0.508790000000     0.418350000000     0.0131507  
H224     H      0.233050000000     0.583970000000     0.275720000000     0.0412462  
H225     H      0.090500000000     0.507240000000     0.326400000000     0.0309698  
H226     H      0.274020000000     0.443290000000     0.234080000000     0.042042   
H227     H      0.153060000000     0.474910000000     0.303790000000     0.034247   
H228     H      0.324950000000     0.519780000000     0.091190000000     0.0336997  
H229     H      0.355720000000     0.550170000000     0.205950000000     0.034289   
H230     H      0.302970000000     0.552510000000     0.153610000000     0.0357946  
H231     H      0.221790000000     0.452540000000     0.287380000000     0.0380688  
H232     H      0.205750000000     0.476400000000     0.356990000000     0.0396374  
H233     H      0.390890000000     0.466400000000     0.180350000000     0.0260443  
H234     H      0.211210000000     0.577830000000     0.409590000000     0.0591128  
H235     H      0.157640000000     0.581790000000     0.421630000000     0.0782065  
H236     H      0.174640000000     0.589810000000     0.369770000000     0.0705634  
H237     H      0.283160000000     0.437450000000     0.790200000000     0.038935   
H238     H      0.142800000000     0.494300000000     0.736960000000     0.033882   
H239     H      0.234660000000     0.481610000000     0.646020000000     0.0399058  
H240     H      0.325570000000     0.546850000000     0.892460000000     0.0318123  
H241     H      0.111230000000     0.454450000000     0.683390000000     0.0288956  
H242     H      0.362070000000     0.505220000000     0.772120000000     0.0335888  
H243     H      0.270230000000     0.507950000000     0.863690000000     0.0341229  
H244     H      0.415880000000     0.495600000000     0.826540000000     0.0350755  
H245     H      0.181440000000     0.491940000000     0.591140000000     0.0144552  
H246     H      0.229930000000     0.426520000000     0.738160000000     0.0413538  
H247     H      0.089700000000     0.505060000000     0.682580000000     0.033708   
H248     H      0.275470000000     0.568200000000     0.770700000000     0.0431455  
H249     H      0.153570000000     0.536490000000     0.702830000000     0.0363257  
H250     H      0.324140000000     0.498120000000     0.917950000000     0.0359918  
H251     H      0.354140000000     0.461180000000     0.804630000000     0.0361349  
H252     H      0.301460000000     0.462760000000     0.857270000000     0.0362224  
H253     H      0.222690000000     0.557230000000     0.718260000000     0.0387247  
H254     H      0.206180000000     0.528620000000     0.649830000000     0.0405522  
H255     H      0.391680000000     0.545020000000     0.826450000000     0.0323431  
H256     H      0.206470000000     0.422550000000     0.606000000000     0.0599157  
H257     H      0.152430000000     0.420520000000     0.595000000000     0.0740462  
H258     H      0.169930000000     0.416300000000     0.647090000000     0.0700337  
H259     H      0.727520000000     0.569920000000     0.790580000000     0.0394517  
H260     H      0.861170000000     0.501950000000     0.735300000000     0.0341086  
H261     H      0.770990000000     0.523370000000     0.644530000000     0.0394813  
H262     H      0.677080000000     0.463410000000     0.892370000000     0.0337065  
H263     H      0.896230000000     0.541890000000     0.685080000000     0.0276862  
H264     H      0.643180000000     0.508990000000     0.772170000000     0.0337608  
H265     H      0.734970000000     0.497800000000     0.863110000000     0.0344315  
H266     H      0.590650000000     0.522250000000     0.827070000000     0.0350733  
H267     H      0.824670000000     0.510680000000     0.589620000000     0.0148951  
H268     H      0.780680000000     0.577350000000     0.737870000000     0.0412466  
H269     H      0.913950000000     0.490130000000     0.680290000000     0.0344838  
H270     H      0.724100000000     0.439360000000     0.768740000000     0.043192   
H271     H      0.848040000000     0.462360000000     0.699020000000     0.036215   
H272     H      0.682050000000     0.511900000000     0.917810000000     0.0358068  
H273     H      0.654800000000     0.551800000000     0.805170000000     0.0366413  
H274     H      0.707530000000     0.545440000000     0.857260000000     0.0365763  
H275     H      0.776870000000     0.446910000000     0.715590000000     0.0387651  
H276     H      0.797080000000     0.475010000000     0.647160000000     0.0398615  
H277     H      0.610690000000     0.471020000000     0.826070000000     0.0332694  
H278     H      0.799920000000     0.580650000000     0.605110000000     0.0589764  
H279     H      0.853320000000     0.581730000000     0.591990000000     0.0725531  
H280     H      0.838080000000     0.586420000000     0.644860000000     0.0680869  
H281     H      0.728840000000     0.715970000000     0.063070000000     0.0410082  
H282     H      0.869510000000     0.768530000000     0.003990000000     0.0273305  
H283     H      0.775740000000     0.857960000000     0.013890000000     0.0404605  
H284     H      0.679890000000     0.613320000000     0.956880000000     0.0303251  
H285     H      0.900480000000     0.822320000000     0.043520000000     0.0338641  
H286     H      0.649410000000     0.735130000000     0.997130000000     0.0409748  
H287     H      0.738280000000     0.640420000000     0.992760000000     0.0411425  
H288     H      0.594370000000     0.682820000000     0.009910000000     0.0283716  
H289     H      0.828310000000     0.913840000000     0.004200000000     0.0124529  
H290     H      0.782750000000     0.767690000000     0.072150000000     0.0403023  
H291     H      0.921610000000     0.824670000000     0.992910000000     0.0420336  
H292     H      0.735280000000     0.732350000000     0.932130000000     0.0445807  
H293     H      0.858570000000     0.802270000000     0.961600000000     0.0340185  
H294     H      0.683530000000     0.587890000000     0.005450000000     0.0287768  
H295     H      0.658010000000     0.703450000000     0.041610000000     0.03956    
H296     H      0.709320000000     0.648650000000     0.039060000000     0.0395678  
H297     H      0.789070000000     0.784340000000     0.941300000000     0.0374766  
H298     H      0.805700000000     0.854140000000     0.967950000000     0.045726   
H299     H      0.617150000000     0.680140000000     0.960000000000     0.0303586  
H300     H      0.800550000000     0.899900000000     0.072570000000     0.0602772  
H301     H      0.854160000000     0.912050000000     0.076710000000     0.0753267  
H302     H      0.837620000000     0.859530000000     0.081170000000     0.0716665  
H303     H      0.715340000000     0.276900000000     0.949230000000     0.0388626  
H304     H      0.857490000000     0.235060000000     0.015430000000     0.0321174  
H305     H      0.767780000000     0.141460000000     0.007100000000     0.0375778  
H306     H      0.680420000000     0.396520000000     0.040530000000     0.0322087  
H307     H      0.891610000000     0.182710000000     0.977480000000     0.0313442  
H308     H      0.638720000000     0.270560000000     0.023250000000     0.0335906  
H309     H      0.731520000000     0.359360000000     0.004330000000     0.0266033  
H310     H      0.585090000000     0.324220000000     0.007040000000     0.0327046  
H311     H      0.823120000000     0.088010000000     0.017660000000     0.0159125  
H312     H      0.769170000000     0.224550000000     0.944390000000     0.040834   
H313     H      0.911790000000     0.181130000000     0.028490000000     0.035161   
H314     H      0.726720000000     0.276380000000     0.080840000000     0.0416825  
H315     H      0.847630000000     0.201570000000     0.058280000000     0.0356342  
H316     H      0.677170000000     0.412270000000     0.988260000000     0.041057   
H317     H      0.644360000000     0.295080000000     0.974100000000     0.0409325  
H318     H      0.697010000000     0.345990000000     0.963380000000     0.0339838  
H319     H      0.779620000000     0.222860000000     0.076000000000     0.0384912  
H320     H      0.797630000000     0.147730000000     0.052820000000     0.0412613  
H321     H      0.611280000000     0.330770000000     0.054740000000     0.030834   
H322     H      0.794090000000     0.099030000000     0.949250000000     0.0581882  
H323     H      0.848300000000     0.090330000000     0.944370000000     0.0730672  
H324     H      0.828460000000     0.141520000000     0.939640000000     0.0687427  
H325     H      0.290950000000     0.725490000000     0.959980000000     0.0392149  
H326     H      0.150460000000     0.776780000000     0.011330000000     0.0320477  
H327     H      0.240910000000     0.870050000000     0.008800000000     0.0386601  
H328     H      0.332090000000     0.621460000000     0.068050000000     0.031078   
H329     H      0.120130000000     0.829670000000     0.970270000000     0.0352608  
H330     H      0.368470000000     0.740650000000     0.029200000000     0.0344626  
H331     H      0.274740000000     0.650550000000     0.031310000000     0.0342843  
H332     H      0.421170000000     0.686170000000     0.018250000000     0.0337671  
H333     H      0.185120000000     0.923680000000     0.016200000000     0.017724   
H334     H      0.238760000000     0.778460000000     0.948520000000     0.041829   
H335     H      0.095560000000     0.830300000000     0.019370000000     0.0354017  
H336     H      0.279280000000     0.742310000000     0.090510000000     0.0422253  
H337     H      0.157200000000     0.810430000000     0.054660000000     0.0358556  
H338     H      0.326580000000     0.595180000000     0.020070000000     0.0332733  
H339     H      0.359510000000     0.709900000000     0.984110000000     0.0424865  
H340     H      0.304630000000     0.657220000000     0.985330000000     0.042268   
H341     H      0.227100000000     0.795490000000     0.078950000000     0.0387298  
H342     H      0.208230000000     0.864200000000     0.052590000000     0.0418125  
H343     H      0.395590000000     0.682740000000     0.066790000000     0.0307239  
H344     H      0.218610000000     0.912530000000     0.949730000000     0.0592828  
H345     H      0.165060000000     0.922730000000     0.941840000000     0.0713604  
H346     H      0.183910000000     0.871000000000     0.937520000000     0.0704518  
H347     H      0.214490000000     0.229930000000     0.933030000000     0.0399249  
H348     H      0.267880000000     0.371780000000     0.988540000000     0.0340439  
H349     H      0.357190000000     0.277520000000     0.981820000000     0.0395638  
H350     H      0.109130000000     0.186630000000     0.039300000000     0.0277851  
H351     H      0.323740000000     0.401520000000     0.950520000000     0.0300084  
H352     H      0.231750000000     0.152420000000     0.002610000000     0.0248909  
H353     H      0.137980000000     0.242270000000     0.000640000000     0.0253749  
H354     H      0.179310000000     0.096890000000     0.993120000000     0.0378918  
H355     H      0.412640000000     0.330060000000     0.994060000000     0.0150225  
H356     H      0.267250000000     0.282830000000     0.923000000000     0.0413769  
H357     H      0.322920000000     0.424120000000     0.000550000000     0.026262   
H358     H      0.229300000000     0.240090000000     0.063860000000     0.0429619  
H359     H      0.299900000000     0.361180000000     0.032270000000     0.0302629  
H360     H      0.085370000000     0.186480000000     0.989790000000     0.0410465  
H361     H      0.200450000000     0.158650000000     0.957550000000     0.0323849  
H362     H      0.146740000000     0.210470000000     0.956310000000     0.0330516  
H363     H      0.282310000000     0.292610000000     0.053850000000     0.0385182  
H364     H      0.351870000000     0.307090000000     0.027890000000     0.0350708  
H365     H      0.176650000000     0.122760000000     0.041390000000     0.027462   
H366     H      0.401060000000     0.303110000000     0.924850000000     0.059482   
H367     H      0.413910000000     0.356730000000     0.921870000000     0.0772242  
H368     H      0.361530000000     0.340760000000     0.915220000000     0.0704974  
H369     H      0.677010000000     0.008120000000     0.779700000000     0.0356072  
H370     H      0.855380000000     0.967830000000     0.781640000000     0.0332405  
H371     H      0.775880000000     0.029230000000     0.865410000000     0.0367816  
H372     H      0.623390000000     0.960280000000     0.662960000000     0.026265   
H373     H      0.875440000000     0.940510000000     0.845130000000     0.0295335  
H374     H      0.721690000000     0.053530000000     0.658230000000     0.0318362  
H375     H      0.644220000000     0.975790000000     0.728850000000     0.0379706  
H376     H      0.665910000000     0.061740000000     0.606890000000     0.0327386  
H377     H      0.829030000000     0.026400000000     0.918070000000     0.0118683  
H378     H      0.728610000000     0.996010000000     0.829990000000     0.0444675  
H379     H      0.913420000000     0.977620000000     0.832030000000     0.0379264  
H380     H      0.770310000000     0.012630000000     0.685490000000     0.0397182  
H381     H      0.865200000000     0.020460000000     0.796540000000     0.0323944  
H382     H      0.585770000000     0.995520000000     0.682130000000     0.0318802  
H383     H      0.675600000000     0.072710000000     0.681040000000     0.0385077  
H384     H      0.633830000000     0.030230000000     0.724380000000     0.0371149  
H385     H      0.822440000000     0.010220000000     0.737310000000     0.0372353  
H386     H      0.822110000000     0.052730000000     0.848260000000     0.0432423  
H387     H      0.684980000000     0.010150000000     0.610460000000     0.0326912  
H388     H      0.776270000000     0.972120000000     0.917370000000     0.0605122  
H389     H      0.824380000000     0.952050000000     0.935180000000     0.0755458  
H390     H      0.807250000000     0.940620000000     0.884000000000     0.0717511  
H391     H      0.319790000000     0.017420000000     0.767290000000     0.0364238  
H392     H      0.140660000000     0.050480000000     0.775080000000     0.0334682  
H393     H      0.224260000000     0.986690000000     0.852810000000     0.0380503  
H394     H      0.366890000000     0.067890000000     0.647950000000     0.027319   
H395     H      0.122200000000     0.075150000000     0.840100000000     0.0286499  
H396     H      0.275030000000     0.971450000000     0.646110000000     0.0335381  
H397     H      0.348960000000     0.053450000000     0.715840000000     0.0327518  
H398     H      0.331550000000     0.963800000000     0.595590000000     0.0314692  
H399     H      0.173600000000     0.987130000000     0.908000000000     0.0148376  
H400     H      0.268900000000     0.025930000000     0.818910000000     0.0380572  
H401     H      0.084770000000     0.037240000000     0.827760000000     0.0342963  
H402     H      0.224660000000     0.009990000000     0.675010000000     0.0390977  
H403     H      0.132260000000     0.997220000000     0.788370000000     0.0411259  
H404     H      0.407810000000     0.038180000000     0.669670000000     0.0320997  
H405     H      0.321290000000     0.953750000000     0.669930000000     0.0394516  
H406     H      0.362450000000     0.999530000000     0.712060000000     0.0415346  
H407     H      0.173590000000     0.009170000000     0.728310000000     0.0369431  
H408     H      0.177280000000     0.963740000000     0.836960000000     0.0431286  
H409     H      0.311830000000     0.015320000000     0.598410000000     0.029247   
H410     H      0.226260000000     0.041780000000     0.906740000000     0.0575499  
H411     H      0.179050000000     0.060820000000     0.927740000000     0.0764466  
H412     H      0.193420000000     0.074400000000     0.876300000000     0.0718969  
H413     H      0.293100000000     0.068050000000     0.277330000000     0.038266   
H414     H      0.239240000000     0.012610000000     0.137790000000     0.033555   
H415     H      0.151090000000     0.012460000000     0.233080000000     0.0392596  
H416     H      0.401010000000     0.964580000000     0.320560000000     0.0290712  
H417     H      0.182610000000     0.050230000000     0.109790000000     0.0234153  
H418     H      0.277270000000     0.998520000000     0.354190000000     0.0412402  
H419     H      0.371230000000     0.002060000000     0.264800000000     0.034611   
H420     H      0.329240000000     0.010460000000     0.409440000000     0.0291019  
H421     H      0.095380000000     0.000390000000     0.180540000000     0.0134331  
H422     H      0.239000000000     0.076680000000     0.225840000000     0.0409553  
H423     H      0.183750000000     0.000640000000     0.085980000000     0.0319506  
H424     H      0.281810000000     0.936470000000     0.267270000000     0.0420391  
H425     H      0.208460000000     0.967590000000     0.147170000000     0.0406156  
H426     H      0.423350000000     0.014880000000     0.320520000000     0.0292468  
H427     H      0.307500000000     0.044410000000     0.347620000000     0.0402184  
H428     H      0.361280000000     0.046530000000     0.296150000000     0.0388186  
H429     H      0.227580000000     0.945120000000     0.215870000000     0.0381854  
H430     H      0.157560000000     0.968060000000     0.201190000000     0.0437708  
H431     H      0.332930000000     0.961470000000     0.384620000000     0.0294658  
H432     H      0.105410000000     0.068660000000     0.212110000000     0.0563305  
H433     H      0.089390000000     0.073900000000     0.159740000000     0.0568746  
H434     H      0.142290000000     0.082400000000     0.173140000000     0.0650506  
H435     H      0.787640000000     0.067360000000     0.228610000000     0.0375198  
H436     H      0.652460000000     0.996320000000     0.276890000000     0.0330522  
H437     H      0.740420000000     0.015290000000     0.370370000000     0.0402386  
H438     H      0.831420000000     0.965290000000     0.120820000000     0.0258623  
H439     H      0.615860000000     0.035060000000     0.326800000000     0.0250622  
H440     H      0.870590000000     0.002890000000     0.241870000000     0.0343583  
H441     H      0.776280000000     0.001040000000     0.152850000000     0.0337593  
H442     H      0.922420000000     0.016710000000     0.186340000000     0.0273039  
H443     H      0.685280000000     0.003070000000     0.423680000000     0.0158897  
H444     H      0.733830000000     0.072710000000     0.280880000000     0.0405198  
H445     H      0.598430000000     0.983020000000     0.330570000000     0.0402614  
H446     H      0.788200000000     0.935660000000     0.242700000000     0.0418836  
H447     H      0.664580000000     0.955910000000     0.312650000000     0.0355957  
H448     H      0.828390000000     0.015090000000     0.097600000000     0.0274428  
H449     H      0.860110000000     0.047870000000     0.211420000000     0.0362277  
H450     H      0.806430000000     0.046790000000     0.160510000000     0.0374554  
H451     H      0.735090000000     0.941140000000     0.295750000000     0.039114   
H452     H      0.713800000000     0.967270000000     0.366180000000     0.0467613  
H453     H      0.900180000000     0.966490000000     0.185440000000     0.0292716  
H454     H      0.710260000000     0.072910000000     0.409780000000     0.057536   
H455     H      0.655940000000     0.074390000000     0.418990000000     0.0552361  
H456     H      0.674940000000     0.078710000000     0.367490000000     0.0647176  
H457     H      0.945360000000     0.291260000000     0.725300000000     0.0388779  
H458     H      0.996790000000     0.146550000000     0.772780000000     0.0408879  
H459     H      0.000620000000     0.239110000000     0.863980000000     0.0412132  
H460     H      0.046940000000     0.325120000000     0.613570000000     0.0310092  
H461     H      0.959120000000     0.117460000000     0.828780000000     0.0273183  
H462     H      0.020310000000     0.364900000000     0.735800000000     0.0340666  
H463     H      0.006580000000     0.272660000000     0.645320000000     0.0263557  
H464     H      0.009290000000     0.419380000000     0.682360000000     0.0337264  
H465     H      0.010960000000     0.184400000000     0.917920000000     0.0120661  
H466     H      0.935760000000     0.238690000000     0.778390000000     0.0405447  
H467     H      0.007980000000     0.092460000000     0.826700000000     0.0279813  
H468     H      0.076050000000     0.273350000000     0.731350000000     0.0421825  
H469     H      0.042230000000     0.153570000000     0.803350000000     0.0391396  
H470     H      0.996700000000     0.326810000000     0.591510000000     0.039597   
H471     H      0.972730000000     0.360240000000     0.708170000000     0.0408994  
H472     H      0.964990000000     0.307570000000     0.655770000000     0.0338514  
H473     H      0.066480000000     0.221190000000     0.784850000000     0.0380827  
H474     H      0.043810000000     0.205960000000     0.856100000000     0.0444489  
H475     H      0.056120000000     0.391210000000     0.677210000000     0.0297274  
H476     H      0.943920000000     0.217860000000     0.909830000000     0.0617116  
H477     H      0.936860000000     0.164500000000     0.922180000000     0.0729758  
H478     H      0.929240000000     0.181780000000     0.870360000000     0.0710402  
H479     H      0.940400000000     0.791420000000     0.783030000000     0.0377291  
H480     H      0.001430000000     0.739130000000     0.643240000000     0.0344566  
H481     H      0.985510000000     0.648140000000     0.734780000000     0.0401154  
H482     H      0.047420000000     0.894250000000     0.828940000000     0.035985   
H483     H      0.961840000000     0.686330000000     0.610240000000     0.0286052  
H484     H      0.006670000000     0.772970000000     0.863260000000     0.0273314  
H485     H      0.010330000000     0.865640000000     0.772260000000     0.027489   
H486     H      0.995150000000     0.826860000000     0.917330000000     0.0425357  
H487     H      0.995430000000     0.592940000000     0.681710000000     0.0187818  
H488     H      0.930980000000     0.739800000000     0.729020000000     0.0432178  
H489     H      0.013010000000     0.684120000000     0.590460000000     0.0292717  
H490     H      0.071030000000     0.772700000000     0.778000000000     0.0417202  
H491     H      0.042690000000     0.704290000000     0.655030000000     0.0380591  
H492     H      0.998680000000     0.919420000000     0.826260000000     0.042915   
H493     H      0.962470000000     0.805000000000     0.854610000000     0.0339173  
H494     H      0.964600000000     0.858390000000     0.802340000000     0.0335811  
H495     H      0.061520000000     0.720540000000     0.724460000000     0.041014   
H496     H      0.032900000000     0.651270000000     0.707040000000     0.0380585  
H497     H      0.044900000000     0.827880000000     0.894090000000     0.0358352  
H498     H      0.926180000000     0.609450000000     0.705450000000     0.0602791  
H499     H      0.924740000000     0.598930000000     0.651200000000     0.072243   
H500     H      0.921670000000     0.651030000000     0.669110000000     0.06985    
H501     H      0.084150000000     0.721780000000     0.285440000000     0.0386978  
H502     H      0.030720000000     0.774040000000     0.144270000000     0.0342279  
H503     H      0.035120000000     0.865690000000     0.236480000000     0.0413387  
H504     H      0.976060000000     0.616220000000     0.325060000000     0.0362922  
H505     H      0.067900000000     0.830680000000     0.114390000000     0.0292748  
H506     H      0.015790000000     0.737970000000     0.362830000000     0.0322692  
H507     H      0.015570000000     0.646090000000     0.271060000000     0.0320766  
H508     H      0.025260000000     0.683210000000     0.416800000000     0.0355373  
H509     H      0.021350000000     0.919840000000     0.182980000000     0.0152602  
H510     H      0.094580000000     0.774760000000     0.232810000000     0.0411392  
H511     H      0.018470000000     0.827510000000     0.090800000000     0.0327098  
H512     H      0.953450000000     0.737160000000     0.274860000000     0.0431713  
H513     H      0.986200000000     0.805380000000     0.153770000000     0.0418001  
H514     H      0.025250000000     0.591880000000     0.325650000000     0.0357835  
H515     H      0.059970000000     0.705590000000     0.355650000000     0.0355801  
H516     H      0.059850000000     0.653110000000     0.303240000000     0.035463   
H517     H      0.963830000000     0.790220000000     0.222520000000     0.0388535  
H518     H      0.989120000000     0.858780000000     0.207190000000     0.047348   
H519     H      0.976090000000     0.683860000000     0.392460000000     0.0372541  
H520     H      0.090850000000     0.910580000000     0.209930000000     0.0602836  
H521     H      0.093240000000     0.922800000000     0.156280000000     0.0779676  
H522     H      0.101530000000     0.870680000000     0.172960000000     0.0710767  
H523     H      0.934670000000     0.288060000000     0.285800000000     0.0373053  
H524     H      0.989180000000     0.237190000000     0.145220000000     0.0336926  
H525     H      0.987690000000     0.145190000000     0.237110000000     0.039324   
H526     H      0.041160000000     0.394290000000     0.327900000000     0.0278056  
H527     H      0.951850000000     0.181070000000     0.115100000000     0.0298827  
H528     H      0.001580000000     0.272720000000     0.364010000000     0.0262558  
H529     H      0.003630000000     0.364570000000     0.272180000000     0.0263964  
H530     H      0.989960000000     0.327120000000     0.417640000000     0.0411866  
H531     H      0.999820000000     0.091240000000     0.182970000000     0.0147594  
H532     H      0.925440000000     0.235110000000     0.233010000000     0.0426888  
H533     H      0.001280000000     0.183620000000     0.091380000000     0.0254116  
H534     H      0.065680000000     0.274510000000     0.276350000000     0.0401863  
H535     H      0.033990000000     0.206010000000     0.153870000000     0.0299346  
H536     H      0.992020000000     0.418750000000     0.326060000000     0.0412033  
H537     H      0.957150000000     0.304460000000     0.355520000000     0.0340172  
H538     H      0.958330000000     0.357170000000     0.302850000000     0.0339766  
H539     H      0.056440000000     0.221550000000     0.223590000000     0.0395256  
H540     H      0.032610000000     0.152550000000     0.206300000000     0.0340826  
H541     H      0.039660000000     0.327800000000     0.394350000000     0.0279781  
H542     H      0.931240000000     0.100130000000     0.212320000000     0.0592391  
H543     H      0.926790000000     0.088730000000     0.158600000000     0.0780098  
H544     H      0.919310000000     0.140550000000     0.176290000000     0.0704115  
N1       N      0.505830000000     0.129870000000     0.371510000000    -0.203414   
N2       N      0.513240000000     0.189820000000     0.309750000000    -0.110091   
N3       N      0.491720000000     0.311860000000     0.186730000000    -0.113129   
N4       N      0.499740000000     0.374530000000     0.127880000000    -0.194024   
N5       N      0.492340000000     0.630700000000     0.136160000000    -0.20017    
N6       N      0.489340000000     0.690970000000     0.198760000000    -0.109549   
N7       N      0.528550000000     0.811150000000     0.320070000000    -0.112912   
N8       N      0.525010000000     0.874370000000     0.379540000000    -0.18879    
N9       N      0.499570000000     0.881550000000     0.634380000000    -0.197322   
N10      N      0.506310000000     0.822300000000     0.696840000000    -0.109596   
N11      N      0.491210000000     0.699940000000     0.820840000000    -0.112459   
N12      N      0.502340000000     0.638070000000     0.880280000000    -0.187006   
N13      N      0.500040000000     0.139570000000     0.625660000000    -0.199769   
N14      N      0.492740000000     0.202910000000     0.684020000000    -0.109806   
N15      N      0.508700000000     0.323280000000     0.809760000000    -0.112496   
N16      N      0.498940000000     0.381840000000     0.872530000000    -0.189931   
N17      N      0.873900000000     0.379420000000     0.504290000000    -0.200217   
N18      N      0.811730000000     0.320220000000     0.513830000000    -0.109589   
N19      N      0.687040000000     0.199000000000     0.498060000000    -0.113139   
N20      N      0.627140000000     0.137610000000     0.506080000000    -0.19345    
N21      N      0.878560000000     0.636110000000     0.502810000000    -0.198583   
N22      N      0.819240000000     0.698650000000     0.496850000000    -0.109643   
N23      N      0.697710000000     0.822450000000     0.518350000000    -0.112526   
N24      N      0.635550000000     0.881970000000     0.509590000000    -0.189429   
N25      N      0.131000000000     0.376510000000     0.507820000000    -0.203319   
N26      N      0.192140000000     0.314980000000     0.508100000000    -0.109923   
N27      N      0.310210000000     0.189980000000     0.474270000000    -0.112932   
N28      N      0.372670000000     0.129820000000     0.480740000000    -0.188862   
N29      N      0.134890000000     0.630780000000     0.504290000000    -0.201677   
N30      N      0.196850000000     0.690370000000     0.511180000000    -0.10971    
N31      N      0.320730000000     0.811480000000     0.489920000000    -0.112726   
N32      N      0.379680000000     0.873940000000     0.498730000000    -0.187519   
N33      N      0.628440000000     0.486950000000     0.133980000000    -0.199637   
N34      N      0.689190000000     0.479270000000     0.195470000000    -0.109787   
N35      N      0.815120000000     0.505330000000     0.314100000000    -0.112673   
N36      N      0.876250000000     0.501100000000     0.375200000000    -0.188575   
N37      N      0.131530000000     0.517010000000     0.377270000000    -0.203433   
N38      N      0.192460000000     0.525970000000     0.316220000000    -0.109635   
N39      N      0.314010000000     0.501170000000     0.193020000000    -0.113101   
N40      N      0.374970000000     0.506620000000     0.132040000000    -0.193535   
N41      N      0.130430000000     0.490130000000     0.632680000000    -0.201324   
N42      N      0.190850000000     0.483080000000     0.694390000000    -0.109736   
N43      N      0.313720000000     0.511770000000     0.815320000000    -0.112625   
N44      N      0.374590000000     0.507540000000     0.876520000000    -0.18915    
N45      N      0.875340000000     0.511930000000     0.631460000000    -0.198339   
N46      N      0.814660000000     0.518590000000     0.692780000000    -0.109863   
N47      N      0.691110000000     0.497990000000     0.814930000000    -0.112489   
N48      N      0.630940000000     0.506170000000     0.876660000000    -0.186113   
N49      N      0.880020000000     0.873380000000     0.009020000000    -0.197194   
N50      N      0.820780000000     0.810580000000     0.014500000000    -0.111415   
N51      N      0.696300000000     0.690300000000     0.990020000000    -0.106939   
N52      N      0.633820000000     0.630980000000     0.998890000000    -0.187031   
N53      N      0.872780000000     0.130680000000     0.011460000000    -0.199056   
N54      N      0.810970000000     0.190490000000     0.005080000000    -0.110639   
N55      N      0.687720000000     0.313460000000     0.019650000000    -0.115097   
N56      N      0.627630000000     0.374630000000     0.009900000000    -0.188794   
N57      N      0.135900000000     0.881110000000     0.006650000000    -0.198803   
N58      N      0.197940000000     0.820990000000     0.004440000000    -0.110487   
N59      N      0.318960000000     0.698460000000     0.034380000000    -0.11101    
N60      N      0.378410000000     0.636040000000     0.025200000000    -0.190782   
N61      N      0.372510000000     0.382030000000     0.988570000000    -0.202649   
N62      N      0.309760000000     0.322440000000     0.980210000000    -0.111277   
N63      N      0.187280000000     0.200010000000     0.006760000000    -0.123175   
N64      N      0.127690000000     0.137250000000     0.001540000000    -0.190254   
N65      N      0.872760000000     0.993960000000     0.881520000000    -0.196663   
N66      N      0.810310000000     0.994200000000     0.820990000000    -0.105222   
N67      N      0.688460000000     0.009610000000     0.694530000000    -0.110155   
N68      N      0.625760000000     0.018530000000     0.635320000000    -0.192662   
N69      N      0.128170000000     0.020870000000     0.874840000000    -0.20164    
N70      N      0.187470000000     0.023550000000     0.811890000000    -0.110142   
N71      N      0.306470000000     0.016590000000     0.682400000000    -0.112454   
N72      N      0.370530000000     0.007770000000     0.624630000000    -0.191608   
N73      N      0.134580000000     0.010990000000     0.128850000000    -0.205005   
N74      N      0.197420000000     0.018250000000     0.187440000000    -0.108336   
N75      N      0.322130000000     0.994930000000     0.307020000000    -0.10352    
N76      N      0.381080000000     0.002190000000     0.369450000000    -0.196815   
N77      N      0.635830000000     0.004540000000     0.380440000000    -0.202485   
N78      N      0.697720000000     0.012000000000     0.321120000000    -0.1117     
N79      N      0.821500000000     0.996140000000     0.199550000000    -0.104393   
N80      N      0.880100000000     0.004820000000     0.137150000000    -0.197653   
N81      N      0.998900000000     0.134110000000     0.877180000000    -0.199587   
N82      N      0.993110000000     0.195150000000     0.816200000000    -0.100873   
N83      N      0.018600000000     0.316000000000     0.692610000000    -0.115368   
N84      N      0.012360000000     0.376920000000     0.631680000000    -0.189571   
N85      N      0.995490000000     0.634630000000     0.630670000000    -0.196204   
N86      N      0.988390000000     0.696540000000     0.690910000000    -0.108902   
N87      N      0.013650000000     0.816770000000     0.815400000000    -0.118371   
N88      N      0.006930000000     0.877520000000     0.876670000000    -0.184268   
N89      N      0.027720000000     0.878550000000     0.132050000000    -0.200933   
N90      N      0.037610000000     0.817170000000     0.192750000000    -0.107764   
N91      N      0.010180000000     0.694450000000     0.314530000000    -0.113305   
N92      N      0.013000000000     0.633270000000     0.375480000000    -0.187888   
N93      N      0.991490000000     0.132630000000     0.132410000000    -0.204108   
N94      N      0.983220000000     0.193630000000     0.193430000000    -0.111869   
N95      N      0.007930000000     0.316200000000     0.315760000000    -0.118822   
N96      N      0.001840000000     0.377420000000     0.376550000000    -0.190354   
O1       O      0.997800000000     0.115550000000     0.063390000000    -0.624141   
O2       O      0.014690000000     0.895420000000     0.063840000000    -0.570088   
O3       O      0.948600000000     0.006880000000     0.117570000000    -0.614718   
O4       O      0.065130000000     0.006520000000     0.113350000000    -0.630581   
O5       O      0.115270000000     0.007310000000     0.060350000000    -0.630623   
O6       O      0.895630000000     0.004750000000     0.067490000000    -0.574638   
O7       O      0.016720000000     0.947270000000     0.115210000000    -0.608969   
O8       O      0.000100000000     0.063770000000     0.114890000000    -0.630756   
O9       O      0.046690000000     0.966750000000     0.044180000000    -1.45822    
O10      O      0.963820000000     0.044760000000     0.046520000000    -1.45628    
O11      O      0.960210000000     0.957200000000     0.048220000000    -1.05511    
O12      O      0.045470000000     0.048970000000     0.045900000000    -1.6264     
O13      O      0.005180000000     0.894870000000     0.945950000000    -0.563044   
O14      O      0.003270000000     0.116430000000     0.946230000000    -0.612177   
O15      O      0.895590000000     0.943180000000     0.007250000000    -0.568144   
O16      O      0.116380000000     0.950090000000     0.007130000000    -0.608725   
O17      O      0.112040000000     0.067410000000     0.000370000000    -0.628282   
O18      O      0.892320000000     0.061720000000     0.010620000000    -0.570152   
O19      O      0.942360000000     0.998400000000     0.896510000000    -0.559506   
O20      O      0.059690000000     0.014430000000     0.893500000000    -0.570434   
O21      O      0.892220000000     0.001200000000     0.949560000000    -0.5724     
O22      O      0.112650000000     0.013050000000     0.943710000000    -0.620342   
O23      O      0.948660000000     0.892940000000     0.005580000000    -0.566107   
O24      O      0.942360000000     0.114940000000     0.011170000000    -0.611132   
O25      O      0.058960000000     0.117610000000     0.001700000000    -0.626896   
O26      O      0.066390000000     0.896860000000     0.006060000000    -0.572997   
O27      O      0.004080000000     0.946740000000     0.894460000000    -0.564549   
O28      O      0.000050000000     0.064740000000     0.894720000000    -0.573126   
O29      O      0.042020000000     0.047330000000     0.963970000000    -1.45377    
O30      O      0.964130000000     0.964200000000     0.966110000000    -1.3494     
O31      O      0.954810000000     0.045910000000     0.959780000000    -1.04458    
O32      O      0.046090000000     0.960340000000     0.957300000000    -1.05612    
O33      O      0.000610000000     0.395090000000     0.445690000000    -0.630383   
O34      O      0.009730000000     0.615670000000     0.444630000000    -0.571793   
O35      O      0.945540000000     0.501020000000     0.392930000000    -0.60393    
O36      O      0.062630000000     0.509330000000     0.394270000000    -0.623198   
O37      O      0.113970000000     0.509290000000     0.446100000000    -0.629619   
O38      O      0.893920000000     0.504000000000     0.444370000000    -0.575141   
O39      O      0.009980000000     0.563930000000     0.393060000000    -0.607545   
O40      O      0.001940000000     0.446800000000     0.394040000000    -0.62807    
O41      O      0.045200000000     0.544800000000     0.463790000000    -1.46734    
O42      O      0.963450000000     0.465320000000     0.463420000000    -1.45112    
O43      O      0.958440000000     0.552830000000     0.461820000000    -1.06105    
O44      O      0.045550000000     0.462840000000     0.462130000000    -1.62917    
O45      O      0.002780000000     0.616520000000     0.562120000000    -0.570279   
O46      O      0.007740000000     0.394310000000     0.562590000000    -0.611063   
O47      O      0.894830000000     0.566380000000     0.504390000000    -0.570055   
O48      O      0.115860000000     0.562030000000     0.501870000000    -0.627277   
O49      O      0.113700000000     0.445800000000     0.504870000000    -0.638866   
O50      O      0.893030000000     0.448160000000     0.502120000000    -0.581699   
O51      O      0.944500000000     0.506680000000     0.614290000000    -0.56562    
O52      O      0.062210000000     0.500990000000     0.614770000000    -0.576764   
O53      O      0.893350000000     0.509800000000     0.562300000000    -0.569117   
O54      O      0.113760000000     0.496270000000     0.563390000000    -0.614702   
O55      O      0.947340000000     0.617200000000     0.504390000000    -0.563601   
O56      O      0.943530000000     0.395360000000     0.500820000000    -0.606741   
O57      O      0.061620000000     0.394590000000     0.507300000000    -0.616033   
O58      O      0.065320000000     0.614710000000     0.502630000000    -0.57296    
O59      O      0.000590000000     0.565050000000     0.613990000000    -0.568719   
O60      O      0.007060000000     0.446090000000     0.614140000000    -0.572226   
O61      O      0.043470000000     0.464470000000     0.544200000000    -1.47249    
O62      O      0.964530000000     0.546200000000     0.543750000000    -1.36897    
O63      O      0.956750000000     0.464230000000     0.550380000000    -1.0556     
O64      O      0.046400000000     0.551450000000     0.551000000000    -1.05324    
O65      O      0.615610000000     0.005520000000     0.448950000000    -0.629169   
O66      O      0.396100000000     0.003150000000     0.439030000000    -0.574428   
O67      O      0.516550000000     0.943950000000     0.394350000000    -0.606557   
O68      O      0.504810000000     0.060960000000     0.390980000000    -0.627266   
O69      O      0.500920000000     0.114270000000     0.440830000000    -0.635429   
O70      O      0.514140000000     0.893900000000     0.447430000000    -0.572235   
O71      O      0.449590000000     0.004890000000     0.389480000000    -0.614326   
O72      O      0.566270000000     0.001460000000     0.395320000000    -0.631278   
O73      O      0.464120000000     0.043840000000     0.459210000000    -1.46434    
O74      O      0.546930000000     0.965990000000     0.465560000000    -1.46312    
O75      O      0.460420000000     0.956460000000     0.460310000000    -1.06216    
O76      O      0.545880000000     0.047940000000     0.461180000000    -1.63743    
O77      O      0.390640000000     0.000810000000     0.556700000000    -0.565558   
O78      O      0.611160000000     0.019230000000     0.565600000000    -0.608105   
O79      O      0.448150000000     0.893500000000     0.503690000000    -0.569281   
O80      O      0.441930000000     0.114720000000     0.489700000000    -0.613081   
O81      O      0.558460000000     0.118130000000     0.503700000000    -0.627831   
O82      O      0.566040000000     0.897610000000     0.507040000000    -0.575249   
O83      O      0.497600000000     0.950490000000     0.614640000000    -0.561021   
O84      O      0.500600000000     0.069500000000     0.610490000000    -0.569628   
O85      O      0.502120000000     0.897170000000     0.564780000000    -0.570776   
O86      O      0.502890000000     0.119420000000     0.557210000000    -0.618086   
O87      O      0.395150000000     0.943640000000     0.499860000000    -0.562867   
O88      O      0.616100000000     0.950820000000     0.505900000000    -0.610891   
O89      O      0.611440000000     0.067970000000     0.507630000000    -0.630651   
O90      O      0.391810000000     0.061670000000     0.492170000000    -0.567386   
O91      O      0.439890000000     0.009550000000     0.610000000000    -0.57097    
O92      O      0.557870000000     0.012130000000     0.615030000000    -0.574299   
O93      O      0.540720000000     0.049230000000     0.543070000000    -1.46829    
O94      O      0.463040000000     0.965900000000     0.542410000000    -1.3596     
O95      O      0.544600000000     0.962370000000     0.552560000000    -1.05191    
O96      O      0.453610000000     0.048180000000     0.545580000000    -1.05663    
O97      O      0.391470000000     0.450450000000     0.998060000000    -0.62262    
O98      O      0.611610000000     0.444180000000     0.005720000000    -0.570383   
O99      O      0.497370000000     0.397010000000     0.942330000000    -0.609591   
O100     O      0.501630000000     0.394100000000     0.059330000000    -0.630665   
O101     O      0.502650000000     0.444260000000     0.112490000000    -0.63272    
O102     O      0.499860000000     0.450470000000     0.892590000000    -0.575485   
O103     O      0.558800000000     0.393740000000     0.007580000000    -0.608265   
O104     O      0.441860000000     0.397600000000     0.996090000000    -0.623269   
O105     O      0.541530000000     0.463530000000     0.043910000000    -1.46534    
O106     O      0.461560000000     0.467900000000     0.963190000000    -1.46346    
O107     O      0.548500000000     0.464650000000     0.957040000000    -1.05522    
O108     O      0.459670000000     0.463720000000     0.044950000000    -1.63246    
O109     O      0.614680000000     0.562250000000     0.003780000000    -0.570351   
O110     O      0.393740000000     0.567000000000     0.014170000000    -0.611352   
O111     O      0.561890000000     0.509490000000     0.894440000000    -0.567008   
O112     O      0.560100000000     0.496310000000     0.115940000000    -0.621693   
O113     O      0.444100000000     0.506280000000     0.114490000000    -0.631605   
O114     O      0.443740000000     0.507450000000     0.894350000000    -0.573516   
O115     O      0.504720000000     0.618720000000     0.949080000000    -0.562436   
O116     O      0.501460000000     0.614990000000     0.067060000000    -0.572101   
O117     O      0.504450000000     0.568390000000     0.896060000000    -0.571904   
O118     O      0.496970000000     0.561790000000     0.116880000000    -0.614567   
O119     O      0.613430000000     0.505530000000     0.946020000000    -0.554373   
O120     O      0.392000000000     0.506800000000     0.945750000000    -0.612092   
O121     O      0.392620000000     0.508400000000     0.062840000000    -0.625476   
O122     O      0.612120000000     0.496480000000     0.064800000000    -0.564254   
O123     O      0.564400000000     0.615330000000     0.004830000000    -0.569879   
O124     O      0.446390000000     0.617600000000     0.013820000000    -0.569837   
O125     O      0.463400000000     0.545810000000     0.045930000000    -1.47542    
O126     O      0.543880000000     0.546540000000     0.965990000000    -1.3609     
O127     O      0.462010000000     0.555310000000     0.959640000000    -1.06285    
O128     O      0.550460000000     0.550530000000     0.048270000000    -1.05222    


