data_structure

_audit_creation_method RASPA-1.0
_audit_creation_date 2023-5-25
_audit_author_name 'Poobodin Mano'

_cell_length_a    32.4425
_cell_length_b    32.5901
_cell_length_c    32.6493
_cell_angle_alpha 90
_cell_angle_beta  90
_cell_angle_gamma 90
_cell_volume      34520.2

_symmetry_cell_setting          triclinic
_symmetry_space_group_name_Hall 'P 1'
_symmetry_space_group_name_H-M  'P 1'
_symmetry_Int_Tables_number     1

_symmetry_equiv_pos_as_xyz 'x,y,z'

loop_
_atom_site_label
_atom_site_type_symbol
_atom_site_fract_x
_atom_site_fract_y
_atom_site_fract_z
_atom_site_charge
C1       C      0.983880000000     0.100350000000     0.089840000000     0.497034   
C2       C      0.006290000000     0.905280000000     0.100630000000     0.506167   
C3       C      0.893070000000     0.997700000000     0.086510000000     0.506159   
C4       C      0.090140000000     0.997880000000     0.101420000000     0.50962    
C5       C      0.010780000000     0.894910000000     0.903650000000     0.491044   
C6       C      0.006030000000     0.092630000000     0.894540000000     0.500025   
C7       C      0.908060000000     0.894200000000     0.999260000000     0.498036   
C8       C      0.106190000000     0.909270000000     0.017490000000     0.507195   
C9       C      0.093410000000     0.100900000000     0.992770000000     0.508062   
C10      C      0.896730000000     0.092070000000     0.991450000000     0.500828   
C11      C      0.907690000000     0.987600000000     0.893110000000     0.492488   
C12      C      0.104550000000     0.004380000000     0.904550000000     0.507122   
C13      C      0.997040000000     0.405320000000     0.393170000000     0.50003    
C14      C      0.002470000000     0.601780000000     0.403740000000     0.50397    
C15      C      0.895050000000     0.497900000000     0.402930000000     0.504563   
C16      C      0.093990000000     0.512910000000     0.396850000000     0.502321   
C17      C      0.993280000000     0.590940000000     0.600480000000     0.492487   
C18      C      0.012910000000     0.394530000000     0.588750000000     0.500763   
C19      C      0.896890000000     0.592970000000     0.497650000000     0.498611   
C20      C      0.093840000000     0.600270000000     0.492930000000     0.507022   
C21      C      0.101220000000     0.404730000000     0.491510000000     0.506194   
C22      C      0.904400000000     0.395830000000     0.485560000000     0.506794   
C23      C      0.902180000000     0.489520000000     0.596770000000     0.496151   
C24      C      0.099430000000     0.488410000000     0.592440000000     0.506858   
C25      C      0.595040000000     0.991570000000     0.394700000000     0.501676   
C26      C      0.398230000000     0.004590000000     0.398540000000     0.499558   
C27      C      0.495750000000     0.900010000000     0.396930000000     0.512568   
C28      C      0.497500000000     0.096330000000     0.397750000000     0.505771   
C29      C      0.404240000000     0.002070000000     0.596460000000     0.498234   
C30      C      0.602200000000     0.998030000000     0.589930000000     0.505991   
C31      C      0.396230000000     0.904670000000     0.503370000000     0.496982   
C32      C      0.406340000000     0.101880000000     0.491770000000     0.507387   
C33      C      0.602910000000     0.090970000000     0.497750000000     0.504236   
C34      C      0.593530000000     0.894910000000     0.485980000000     0.50205    
C35      C      0.499120000000     0.899930000000     0.593300000000     0.499971   
C36      C      0.508440000000     0.096220000000     0.593320000000     0.504564   
C37      C      0.398500000000     0.403360000000     0.992050000000     0.506973   
C38      C      0.594950000000     0.397720000000     0.006640000000     0.506701   
C39      C      0.491410000000     0.400960000000     0.898880000000     0.509685   
C40      C      0.497400000000     0.399950000000     0.094330000000     0.504778   
C41      C      0.599870000000     0.595360000000     0.999290000000     0.488817   
C42      C      0.401580000000     0.599230000000     0.001740000000     0.504099   
C43      C      0.598750000000     0.499570000000     0.899930000000     0.496616   
C44      C      0.596240000000     0.486960000000     0.096460000000     0.505727   
C45      C      0.399060000000     0.503690000000     0.093770000000     0.503387   
C46      C      0.401330000000     0.497230000000     0.897670000000     0.505263   
C47      C      0.507210000000     0.597390000000     0.900340000000     0.496097   
C48      C      0.495590000000     0.595830000000     0.096650000000     0.510852   
C49      C      0.491830000000     0.200280000000     0.348080000000    -0.0375248  
C50      C      0.499070000000     0.296170000000     0.144010000000    -0.0363844  
C51      C      0.492840000000     0.382410000000     0.167360000000     0.00935996 
C52      C      0.485640000000     0.327440000000     0.111740000000     0.00930504 
C53      C      0.455620000000     0.264290000000     0.236190000000    -0.0547275  
C54      C      0.533030000000     0.231970000000     0.255590000000    -0.0543673  
C55      C      0.490630000000     0.278430000000     0.215430000000     0.0609745  
C56      C      0.506500000000     0.348190000000     0.196190000000    -0.0361913  
C57      C      0.498020000000     0.217780000000     0.276270000000     0.0608562  
C58      C      0.481280000000     0.148260000000     0.296570000000    -0.0482262  
C59      C      0.459150000000     0.234190000000     0.266450000000    -0.0568191  
C60      C      0.496890000000     0.113800000000     0.324310000000     0.0516327  
C61      C      0.506820000000     0.169040000000     0.379740000000     0.0102824  
C62      C      0.529530000000     0.262110000000     0.225430000000    -0.0569324  
C63      C      0.499230000000     0.796960000000     0.347590000000    -0.0373599  
C64      C      0.488340000000     0.698530000000     0.146990000000    -0.0360962  
C65      C      0.499770000000     0.612650000000     0.169770000000     0.01098    
C66      C      0.503150000000     0.668500000000     0.114450000000     0.00963061 
C67      C      0.532850000000     0.733890000000     0.235910000000    -0.0550389  
C68      C      0.454310000000     0.760820000000     0.258900000000    -0.0548251  
C69      C      0.497900000000     0.716530000000     0.217790000000     0.0615477  
C70      C      0.485250000000     0.645990000000     0.199150000000    -0.0365891  
C71      C      0.489270000000     0.778180000000     0.277020000000     0.0613438  
C72      C      0.501530000000     0.849010000000     0.294740000000    -0.0486817  
C73      C      0.528710000000     0.764540000000     0.265370000000    -0.0569882  
C74      C      0.487280000000     0.882720000000     0.324070000000     0.0519387  
C75      C      0.484850000000     0.827450000000     0.379930000000     0.0108435  
C76      C      0.458450000000     0.730170000000     0.229430000000    -0.057167   
C77      C      0.478040000000     0.807090000000     0.655540000000    -0.0374949  
C78      C      0.527470000000     0.645820000000     0.798750000000    -0.0354305  
C79      C      0.499150000000     0.669410000000     0.880200000000     0.00976971 
C80      C      0.538880000000     0.619140000000     0.835640000000     0.00658845 
C81      C      0.517610000000     0.760290000000     0.787090000000    -0.0536412  
C82      C      0.513250000000     0.736160000000     0.705360000000    -0.0536021  
C83      C      0.516180000000     0.718200000000     0.777900000000     0.0596527  
C84      C      0.486310000000     0.691110000000     0.840840000000    -0.0363995  
C85      C      0.513520000000     0.778260000000     0.714660000000     0.0592661  
C86      C      0.525310000000     0.850270000000     0.693160000000    -0.0476248  
C87      C      0.514680000000     0.789850000000     0.756350000000    -0.0546236  
C88      C      0.534030000000     0.876940000000     0.655490000000     0.0480038  
C89      C      0.486990000000     0.828970000000     0.615120000000     0.0105265  
C90      C      0.513080000000     0.706580000000     0.736300000000    -0.0548494  
C91      C      0.513140000000     0.307340000000     0.839810000000    -0.0385852  
C92      C      0.483270000000     0.146600000000     0.693260000000    -0.0363361  
C93      C      0.520900000000     0.167320000000     0.614780000000     0.0110744  
C94      C      0.475730000000     0.118850000000     0.656350000000     0.00873857 
C95      C      0.493080000000     0.261290000000     0.703800000000    -0.0533464  
C96      C      0.483870000000     0.238300000000     0.785420000000    -0.0538026  
C97      C      0.492380000000     0.219250000000     0.713570000000     0.0588759  
C98      C      0.529160000000     0.190320000000     0.654800000000    -0.0371429  
C99      C      0.486090000000     0.280260000000     0.775850000000     0.0592204  
C100     C      0.474980000000     0.353160000000     0.795710000000    -0.047798   
C101     C      0.491530000000     0.291320000000     0.734350000000    -0.0549042  
C102     C      0.462720000000     0.380740000000     0.832050000000     0.0483672  
C103     C      0.498650000000     0.329000000000     0.878530000000     0.0136791  
C104     C      0.488620000000     0.208330000000     0.755330000000    -0.0544595  
C105     C      0.804280000000     0.341340000000     0.491530000000    -0.0374247  
C106     C      0.707310000000     0.137480000000     0.487960000000    -0.0368984  
C107     C      0.624130000000     0.162370000000     0.510970000000     0.00934729 
C108     C      0.677320000000     0.105340000000     0.504680000000     0.00854512 
C109     C      0.750720000000     0.225810000000     0.529200000000    -0.0547761  
C110     C      0.766390000000     0.251610000000     0.449000000000    -0.0546866  
C111     C      0.729020000000     0.207990000000     0.496690000000     0.0607112  
C112     C      0.656480000000     0.191690000000     0.493790000000    -0.0369024  
C113     C      0.787690000000     0.269820000000     0.481570000000     0.0604243  
C114     C      0.859060000000     0.291150000000     0.484210000000    -0.0491526  
C115     C      0.779900000000     0.256440000000     0.521850000000    -0.0566846  
C116     C      0.889320000000     0.323550000000     0.468170000000     0.05256    
C117     C      0.831600000000     0.375990000000     0.475510000000     0.00979537 
C118     C      0.737280000000     0.220900000000     0.456340000000    -0.0569121  
C119     C      0.836840000000     0.689540000000     0.499550000000    -0.0380306  
C120     C      0.640010000000     0.791890000000     0.462470000000    -0.0357679  
C121     C      0.665580000000     0.872430000000     0.492490000000     0.00821448 
C122     C      0.607280000000     0.820770000000     0.480310000000     0.00789182 
C123     C      0.716030000000     0.738130000000     0.507030000000    -0.0546469  
C124     C      0.764150000000     0.735450000000     0.436030000000    -0.0542774  
C125     C      0.709250000000     0.767020000000     0.476050000000     0.0606431  
C126     C      0.694870000000     0.840540000000     0.474360000000    -0.0355698  
C127     C      0.772410000000     0.707960000000     0.468030000000     0.0594893  
C128     C      0.796780000000     0.637840000000     0.462780000000    -0.046236   
C129     C      0.746930000000     0.708570000000     0.503030000000    -0.0559997  
C130     C      0.835050000000     0.610070000000     0.458360000000     0.0426091  
C131     C      0.876520000000     0.665260000000     0.493960000000     0.0110156  
C132     C      0.732460000000     0.764440000000     0.439640000000    -0.0569127  
C133     C      0.361770000000     0.208070000000     0.494290000000    -0.0378882  
C134     C      0.156370000000     0.303500000000     0.487780000000    -0.0367202  
C135     C      0.175530000000     0.391070000000     0.488720000000     0.00999291 
C136     C      0.123010000000     0.333360000000     0.501870000000     0.00992479 
C137     C      0.250510000000     0.276100000000     0.528170000000    -0.0543465  
C138     C      0.269350000000     0.242840000000     0.451480000000    -0.0546517  
C139     C      0.229140000000     0.289610000000     0.493420000000     0.0610826  
C140     C      0.205540000000     0.357610000000     0.475360000000    -0.036745   
C141     C      0.290450000000     0.229090000000     0.486260000000     0.0611892  
C142     C      0.306930000000     0.158490000000     0.501870000000    -0.0482873  
C143     C      0.280940000000     0.245980000000     0.524770000000    -0.0567915  
C144     C      0.333630000000     0.123120000000     0.486430000000     0.051398   
C145     C      0.392450000000     0.175330000000     0.480060000000     0.0112501  
C146     C      0.238880000000     0.272850000000     0.454880000000    -0.0568361  
C147     C      0.342090000000     0.804460000000     0.498650000000    -0.0370422  
C148     C      0.139940000000     0.704370000000     0.500810000000    -0.0362571  
C149     C      0.165400000000     0.621530000000     0.478430000000     0.0102255  
C150     C      0.107930000000     0.674200000000     0.484330000000     0.00865404 
C151     C      0.228120000000     0.748120000000     0.458970000000    -0.0548603  
C152     C      0.252360000000     0.766230000000     0.539170000000    -0.0545337  
C153     C      0.210420000000     0.726670000000     0.491700000000     0.0608778  
C154     C      0.194820000000     0.654170000000     0.495070000000    -0.0367825  
C155     C      0.270250000000     0.787510000000     0.506430000000     0.0603754  
C156     C      0.291020000000     0.858750000000     0.500800000000    -0.0481843  
C157     C      0.257840000000     0.778280000000     0.466120000000    -0.056551   
C158     C      0.322600000000     0.890140000000     0.516460000000     0.0503461  
C159     C      0.375900000000     0.832650000000     0.514880000000     0.00958857 
C160     C      0.222690000000     0.736000000000     0.532010000000    -0.0569667  
C161     C      0.803310000000     0.463550000000     0.345790000000    -0.0371845  
C162     C      0.695990000000     0.495970000000     0.150490000000    -0.0363953  
C163     C      0.613970000000     0.462840000000     0.166050000000     0.00867851 
C164     C      0.669780000000     0.480740000000     0.114690000000     0.00899246 
C165     C      0.746430000000     0.451050000000     0.227500000000    -0.0546207  
C166     C      0.742160000000     0.522050000000     0.275280000000    -0.05458    
C167     C      0.715330000000     0.479920000000     0.219890000000     0.0605004  
C168     C      0.642970000000     0.477890000000     0.199810000000    -0.0364095  
C169     C      0.772220000000     0.492460000000     0.283880000000     0.0608563  
C170     C      0.839460000000     0.516610000000     0.306970000000    -0.0461105  
C171     C      0.775100000000     0.457430000000     0.258840000000    -0.0567325  
C172     C      0.860260000000     0.533220000000     0.345830000000     0.0491833  
C173     C      0.824860000000     0.476540000000     0.385430000000     0.0115868  
C174     C      0.714280000000     0.516270000000     0.243220000000    -0.0567136  
C175     C      0.295870000000     0.520520000000     0.142950000000    -0.0369328  
C176     C      0.196010000000     0.512730000000     0.345070000000    -0.0368584  
C177     C      0.110050000000     0.528630000000     0.324480000000     0.00843123 
C178     C      0.166400000000     0.527510000000     0.378400000000     0.00865201 
C179     C      0.234440000000     0.555320000000     0.256410000000    -0.0545851  
C180     C      0.254190000000     0.475860000000     0.230770000000    -0.0545537  
C181     C      0.213890000000     0.521750000000     0.273820000000     0.0602843  
C182     C      0.142220000000     0.513920000000     0.293500000000    -0.036904   
C183     C      0.274650000000     0.509410000000     0.213300000000     0.060538   
C184     C      0.347230000000     0.513740000000     0.196040000000    -0.0477571  
C185     C      0.264660000000     0.549340000000     0.226440000000    -0.0567876  
C186     C      0.379350000000     0.496100000000     0.166400000000     0.0507278  
C187     C      0.324890000000     0.503700000000     0.110040000000     0.00915564 
C188     C      0.224120000000     0.481810000000     0.260830000000    -0.0566913  
C189     C      0.151230000000     0.492120000000     0.693760000000    -0.037672   
C190     C      0.353020000000     0.484200000000     0.794370000000    -0.0361016  
C191     C      0.328170000000     0.502360000000     0.878410000000     0.00960863 
C192     C      0.385210000000     0.500860000000     0.824170000000     0.0089231  
C193     C      0.265420000000     0.526680000000     0.752490000000    -0.0547776  
C194     C      0.239510000000     0.447230000000     0.732930000000    -0.054352   
C195     C      0.282200000000     0.493150000000     0.773490000000     0.0609877  
C196     C      0.299130000000     0.485900000000     0.845410000000    -0.0361399  
C197     C      0.222370000000     0.480810000000     0.712280000000     0.0605592  
C198     C      0.203210000000     0.485970000000     0.640680000000    -0.0484251  
C199     C      0.235800000000     0.520700000000     0.722030000000    -0.056601   
C200     C      0.171610000000     0.470400000000     0.609350000000     0.0509159  
C201     C      0.117210000000     0.477220000000     0.665040000000     0.0104597  
C202     C      0.269290000000     0.453200000000     0.763250000000    -0.0569484  
C203     C      0.649440000000     0.490100000000     0.797720000000    -0.0372178  
C204     C      0.853480000000     0.493440000000     0.699920000000    -0.035746   
C205     C      0.829490000000     0.477920000000     0.615240000000     0.00777001 
C206     C      0.885810000000     0.477970000000     0.669600000000     0.00788956 
C207     C      0.763100000000     0.451870000000     0.738480000000    -0.0548042  
C208     C      0.740360000000     0.531690000000     0.760360000000    -0.054541   
C209     C      0.782160000000     0.485380000000     0.719450000000     0.0611229  
C210     C      0.799960000000     0.493440000000     0.648140000000    -0.0355728  
C211     C      0.721160000000     0.498200000000     0.779210000000     0.0610403  
C212     C      0.701880000000     0.491320000000     0.850460000000    -0.0481861  
C213     C      0.732820000000     0.458100000000     0.768220000000    -0.0568281  
C214     C      0.672150000000     0.508920000000     0.882300000000     0.0509699  
C215     C      0.616550000000     0.506680000000     0.826880000000     0.00972146 
C216     C      0.770670000000     0.525480000000     0.730690000000    -0.0568444  
C217     C      0.855460000000     0.793520000000     0.994150000000    -0.0426202  
C218     C      0.652720000000     0.696150000000     0.017470000000    -0.0292213  
C219     C      0.673710000000     0.612340000000     0.993720000000    -0.0026609  
C220     C      0.618950000000     0.668620000000     0.999550000000    -0.00133397 
C221     C      0.736250000000     0.740330000000     0.974840000000    -0.0582454  
C222     C      0.775360000000     0.747950000000     0.050790000000    -0.0539858  
C223     C      0.724290000000     0.714850000000     0.007210000000     0.0660697  
C224     C      0.704210000000     0.642920000000     0.012100000000    -0.028576   
C225     C      0.788190000000     0.772590000000     0.017970000000     0.0624346  
C226     C      0.807800000000     0.843800000000     0.022990000000    -0.0435752  
C227     C      0.767550000000     0.769210000000     0.980110000000    -0.0580233  
C228     C      0.843270000000     0.873930000000     0.031580000000     0.0445795  
C229     C      0.892590000000     0.820500000000     0.003900000000     0.0160628  
C230     C      0.743360000000     0.719540000000     0.045700000000    -0.0582823  
C231     C      0.695780000000     0.343750000000     0.002890000000    -0.0336744  
C232     C      0.791940000000     0.138510000000     0.002940000000    -0.0264674  
C233     C      0.875710000000     0.164210000000     0.983070000000     0.0044302  
C234     C      0.822270000000     0.106880000000     0.985610000000    -0.000914228
C235     C      0.750550000000     0.229000000000     0.963470000000    -0.0521033  
C236     C      0.731900000000     0.252040000000     0.043870000000    -0.0570488  
C237     C      0.770630000000     0.209580000000     0.996110000000     0.0564889  
C238     C      0.842970000000     0.192630000000     0.000960000000    -0.0277457  
C239     C      0.712210000000     0.271830000000     0.011180000000     0.0648505  
C240     C      0.640980000000     0.293210000000     0.006610000000    -0.0455955  
C241     C      0.721520000000     0.259800000000     0.970780000000    -0.0614672  
C242     C      0.609940000000     0.325050000000     0.022280000000     0.0513533  
C243     C      0.667560000000     0.377950000000     0.018570000000     0.00819526 
C244     C      0.760890000000     0.221140000000     0.036540000000    -0.0521112  
C245     C      0.204330000000     0.856360000000     0.001460000000    -0.0321891  
C246     C      0.301590000000     0.653090000000     0.021380000000    -0.0368419  
C247     C      0.384060000000     0.671980000000     0.990990000000    -0.00125547 
C248     C      0.328140000000     0.618370000000     0.004000000000     0.0124872  
C249     C      0.254380000000     0.735860000000     0.978630000000    -0.0568914  
C250     C      0.252760000000     0.775200000000     0.054680000000    -0.0549833  
C251     C      0.282040000000     0.723650000000     0.009280000000     0.0632762  
C252     C      0.354300000000     0.703900000000     0.008440000000    -0.0283161  
C253     C      0.226090000000     0.788310000000     0.023570000000     0.0638722  
C254     C      0.155940000000     0.811280000000     0.037030000000    -0.0459686  
C255     C      0.226280000000     0.767640000000     0.985720000000    -0.0594944  
C256     C      0.132290000000     0.848080000000     0.054650000000     0.0491642  
C257     C      0.180760000000     0.894560000000     0.015750000000     0.0143454  
C258     C      0.280260000000     0.742890000000     0.047870000000    -0.0568196  
C259     C      0.345260000000     0.301810000000     0.981260000000    -0.0367354  
C260     C      0.140310000000     0.205420000000     0.991690000000    -0.0405199  
C261     C      0.165630000000     0.120290000000     0.980610000000     0.0112451  
C262     C      0.108300000000     0.173660000000     0.978380000000     0.0100402  
C263     C      0.230340000000     0.242720000000     0.947580000000    -0.0542688  
C264     C      0.253990000000     0.268320000000     0.025890000000    -0.0523551  
C265     C      0.211370000000     0.225530000000     0.982070000000     0.0577715  
C266     C      0.194690000000     0.154490000000     0.994020000000    -0.0407244  
C267     C      0.273330000000     0.285090000000     0.991440000000     0.0584072  
C268     C      0.294080000000     0.355660000000     0.981560000000    -0.0477708  
C269     C      0.261060000000     0.272410000000     0.952080000000    -0.0567994  
C270     C      0.324530000000     0.387560000000     0.997820000000     0.049479   
C271     C      0.379130000000     0.330550000000     0.996610000000     0.00748164 
C272     C      0.223200000000     0.238780000000     0.021400000000    -0.0540969  
C273     C      0.656790000000     0.002880000000     0.691320000000    -0.0341251  
C274     C      0.861090000000     0.980310000000     0.787650000000    -0.0354597  
C275     C      0.835260000000     0.992870000000     0.872420000000     0.0074244  
C276     C      0.893630000000     0.992750000000     0.819270000000     0.00671    
C277     C      0.773440000000     0.029970000000     0.750610000000    -0.0536702  
C278     C      0.746040000000     0.953490000000     0.722970000000    -0.0544059  
C279     C      0.790730000000     0.994120000000     0.766900000000     0.0600097  
C280     C      0.806480000000     0.980070000000     0.837780000000    -0.0355638  
C281     C      0.728410000000     0.989320000000     0.707070000000     0.060066   
C282     C      0.707500000000     0.002990000000     0.637180000000    -0.0459872  
C283     C      0.742560000000     0.027740000000     0.720860000000    -0.0560394  
C284     C      0.676110000000     0.989490000000     0.604850000000     0.0492847  
C285     C      0.622050000000     0.990250000000     0.662240000000     0.00673596 
C286     C      0.776970000000     0.955710000000     0.752650000000    -0.0566568  
C287     C      0.358430000000     0.998430000000     0.701380000000    -0.0398436  
C288     C      0.158940000000     0.012710000000     0.803660000000    -0.0343995  
C289     C      0.179070000000     0.003810000000     0.890410000000     0.0106967  
C290     C      0.125550000000     0.997570000000     0.832770000000     0.00705056 
C291     C      0.247290000000     0.968820000000     0.768750000000    -0.0556758  
C292     C      0.272280000000     0.046620000000     0.742510000000    -0.0544324  
C293     C      0.230690000000     0.003820000000     0.787380000000     0.0623582  
C294     C      0.209640000000     0.017810000000     0.857500000000    -0.0361703  
C295     C      0.288790000000     0.011610000000     0.723810000000     0.0613883  
C296     C      0.303110000000     0.001330000000     0.651770000000    -0.0471624  
C297     C      0.276060000000     0.972530000000     0.737160000000    -0.0572379  
C298     C      0.332240000000     0.014690000000     0.617230000000     0.0504284  
C299     C      0.390550000000     0.011730000000     0.669930000000     0.0122646  
C300     C      0.243320000000     0.042900000000     0.773970000000    -0.0572942  
C301     C      0.143900000000     0.006070000000     0.200560000000    -0.037622   
C302     C      0.345260000000     0.983360000000     0.299330000000    -0.0378498  
C303     C      0.324550000000     0.013810000000     0.380800000000     0.00641237 
C304     C      0.378720000000     0.004230000000     0.325250000000     0.0107921  
C305     C      0.265080000000     0.019910000000     0.248900000000    -0.053741   
C306     C      0.218040000000     0.948170000000     0.253290000000    -0.0541215  
C307     C      0.273320000000     0.991370000000     0.279880000000     0.059069   
C308     C      0.293910000000     0.992390000000     0.352310000000    -0.0371475  
C309     C      0.208640000000     0.977660000000     0.223410000000     0.0583984  
C310     C      0.185710000000     0.963920000000     0.154180000000    -0.0467931  
C311     C      0.233510000000     0.013050000000     0.220630000000    -0.0552374  
C312     C      0.148260000000     0.956890000000     0.125920000000     0.0433698  
C313     C      0.105240000000     0.998160000000     0.175160000000     0.0107804  
C314     C      0.250480000000     0.954570000000     0.280990000000    -0.0563443  
C315     C      0.800270000000     0.027030000000     0.144890000000    -0.0364579  
C316     C      0.694450000000     0.974420000000     0.338490000000    -0.037207   
C317     C      0.612840000000     0.009070000000     0.323840000000     0.00957054 
C318     C      0.668120000000     0.987230000000     0.375240000000     0.0090822  
C319     C      0.743670000000     0.027790000000     0.264820000000    -0.0535622  
C320     C      0.741600000000     0.960840000000     0.211430000000    -0.0546475  
C321     C      0.714380000000     0.996740000000     0.270730000000     0.059234   
C322     C      0.642100000000     0.995140000000     0.290100000000    -0.0381991  
C323     C      0.769850000000     0.992600000000     0.204610000000     0.0603223  
C324     C      0.837530000000     0.972100000000     0.180170000000    -0.0464415  
C325     C      0.771690000000     0.025560000000     0.232370000000    -0.0561517  
C326     C      0.858350000000     0.958490000000     0.140360000000     0.0497     
C327     C      0.822510000000     0.017420000000     0.104520000000     0.0120819  
C328     C      0.714420000000     0.962470000000     0.244500000000    -0.0564594  
C329     C      0.021010000000     0.138780000000     0.789940000000    -0.0368994  
C330     C      0.014230000000     0.340530000000     0.689000000000    -0.0355531  
C331     C      0.028740000000     0.321520000000     0.602940000000     0.00855254 
C332     C      0.029000000000     0.374320000000     0.659970000000     0.00755405 
C333     C      0.056750000000     0.251080000000     0.725700000000    -0.0544498  
C334     C      0.977000000000     0.226500000000     0.746930000000    -0.054462   
C335     C      0.022920000000     0.268800000000     0.705650000000     0.0605561  
C336     C      0.014340000000     0.289830000000     0.634640000000    -0.0360403  
C337     C      0.010800000000     0.208960000000     0.767130000000     0.0604205  
C338     C      0.016860000000     0.193490000000     0.839610000000    -0.047663   
C339     C      0.050890000000     0.221440000000     0.756200000000    -0.0565285  
C340     C      0.999820000000     0.164990000000     0.873030000000     0.049354   
C341     C      0.004680000000     0.106860000000     0.820360000000     0.00881574 
C342     C      0.982850000000     0.256170000000     0.716500000000    -0.0568648  
C343     C      0.998530000000     0.691200000000     0.655300000000    -0.0371346  
C344     C      0.003670000000     0.790060000000     0.857990000000    -0.0350638  
C345     C      0.020450000000     0.873910000000     0.831550000000     0.00645909 
C346     C      0.020720000000     0.821100000000     0.888940000000     0.00639079 
C347     C      0.042250000000     0.748610000000     0.767150000000    -0.0549436  
C348     C      0.961280000000     0.726600000000     0.747710000000    -0.053928   
C349     C      0.009460000000     0.768130000000     0.787190000000     0.0609098  
C350     C      0.003290000000     0.840410000000     0.803470000000    -0.0348894  
C351     C      0.994070000000     0.707320000000     0.727440000000     0.0593473  
C352     C      0.001690000000     0.636490000000     0.705370000000    -0.0469517  
C353     C      0.034780000000     0.718490000000     0.737520000000    -0.0558325  
C354     C      0.985240000000     0.604670000000     0.674640000000     0.0489415  
C355     C      0.981450000000     0.662590000000     0.622250000000     0.00845979 
C356     C      0.968760000000     0.756760000000     0.777320000000    -0.0573877  
C357     C      0.018070000000     0.860650000000     0.206550000000    -0.0374044  
C358     C      0.006560000000     0.657370000000     0.303810000000    -0.0363516  
C359     C      0.012980000000     0.675650000000     0.391000000000     0.00872532 
C360     C      0.019330000000     0.623320000000     0.333370000000     0.0100396  
C361     C      0.051210000000     0.748580000000     0.273620000000    -0.0546875  
C362     C      0.973570000000     0.771080000000     0.244020000000    -0.0547533  
C363     C      0.015890000000     0.729380000000     0.289270000000     0.0609567  
C364     C      0.000580000000     0.707140000000     0.358490000000    -0.0358834  
C365     C      0.008880000000     0.789900000000     0.228040000000     0.060951   
C366     C      0.023080000000     0.806140000000     0.156930000000    -0.0477563  
C367     C      0.047870000000     0.778660000000     0.243230000000    -0.0567528  
C368     C      0.006630000000     0.832810000000     0.121980000000     0.050187   
C369     C      0.002750000000     0.891550000000     0.174630000000     0.0108786  
C370     C      0.976890000000     0.741090000000     0.274390000000    -0.0570776  
C371     C      0.983380000000     0.358560000000     0.288910000000    -0.0373037  
C372     C      0.986060000000     0.154930000000     0.190040000000    -0.0366439  
C373     C      0.970730000000     0.173880000000     0.104120000000     0.00677769 
C374     C      0.969950000000     0.121280000000     0.161420000000     0.00679436 
C375     C      0.946170000000     0.245720000000     0.226660000000    -0.0543859  
C376     C      0.026620000000     0.269620000000     0.245920000000    -0.0540663  
C377     C      0.979330000000     0.227100000000     0.206330000000     0.0594149  
C378     C      0.986580000000     0.205250000000     0.135420000000    -0.0366846  
C379     C      0.993460000000     0.288180000000     0.266290000000     0.0590929  
C380     C      0.990020000000     0.304100000000     0.338710000000    -0.049236   
C381     C      0.953020000000     0.275890000000     0.256440000000    -0.0563355  
C382     C      0.006980000000     0.333340000000     0.371560000000     0.0517207  
C383     C      0.999870000000     0.390920000000     0.318870000000     0.00860986 
C384     C      0.019780000000     0.239320000000     0.216270000000    -0.0562815  
Eu1      Eu     0.994290000000     0.000940000000     0.069450000000     3.48867    
Eu2      Eu     0.004940000000     0.925040000000     0.000680000000     3.08184    
Eu3      Eu     0.995890000000     0.070790000000     0.993060000000     3.4452     
Eu4      Eu     0.927230000000     0.994300000000     0.992400000000     3.03229    
Eu5      Eu     0.072830000000     0.001920000000     0.000770000000     3.56854    
Eu6      Eu     0.004800000000     0.994740000000     0.924120000000     3.02245    
Eu7      Eu     0.995850000000     0.502780000000     0.423810000000     3.46879    
Eu8      Eu     0.996060000000     0.571060000000     0.500820000000     3.06537    
Eu9      Eu     0.001120000000     0.425510000000     0.492870000000     3.49675    
Eu10     Eu     0.925570000000     0.494890000000     0.498190000000     3.03888    
Eu11     Eu     0.071530000000     0.501630000000     0.495570000000     3.5335     
Eu12     Eu     0.000350000000     0.494090000000     0.569490000000     3.02688    
Eu13     Eu     0.496800000000     0.997660000000     0.422730000000     3.50214    
Eu14     Eu     0.426110000000     0.001720000000     0.497110000000     3.03788    
Eu15     Eu     0.572580000000     0.993900000000     0.493470000000     3.46543    
Eu16     Eu     0.495940000000     0.925060000000     0.495200000000     3.06027    
Eu17     Eu     0.502880000000     0.070710000000     0.495790000000     3.50502    
Eu18     Eu     0.502110000000     0.998090000000     0.567910000000     3.06171    
Eu19     Eu     0.497980000000     0.426130000000     0.996220000000     3.50231    
Eu20     Eu     0.572510000000     0.496990000000     0.998250000000     3.04253    
Eu21     Eu     0.425960000000     0.501180000000     0.995790000000     3.48945    
Eu22     Eu     0.499950000000     0.499090000000     0.924460000000     3.04568    
Eu23     Eu     0.498520000000     0.498550000000     0.069900000000     3.52287    
Eu24     Eu     0.500350000000     0.571810000000     0.998140000000     3.03878    
H1       H      0.959950000000     0.960600000000     0.063980000000    -0.161665   
H2       H      0.053100000000     0.063380000000     0.057580000000     0.403973   
H3       H      0.961400000000     0.061960000000     0.953860000000    -0.17794    
H4       H      0.072670000000     0.962400000000     0.965410000000    -0.19019    
H5       H      0.957490000000     0.539130000000     0.431630000000    -0.152643   
H6       H      0.059170000000     0.444880000000     0.432130000000     0.409399   
H7       H      0.964390000000     0.426380000000     0.531470000000    -0.177801   
H8       H      0.066540000000     0.536630000000     0.535390000000    -0.182112   
H9       H      0.458090000000     0.962330000000     0.429090000000    -0.195197   
H10      H      0.560590000000     0.055090000000     0.434250000000     0.411743   
H11      H      0.567110000000     0.956540000000     0.530720000000    -0.168029   
H12      H      0.465740000000     0.067470000000     0.533370000000    -0.188583   
H13      H      0.536430000000     0.430000000000     0.959440000000    -0.173836   
H14      H      0.436760000000     0.440320000000     0.055320000000     0.414846   
H15      H      0.432260000000     0.538590000000     0.958800000000    -0.182944   
H16      H      0.537430000000     0.534860000000     0.066100000000    -0.17964    
H17      H      0.557060000000     0.272690000000     0.209980000000     0.040068   
H18      H      0.506650000000     0.230340000000     0.354830000000     0.0338833  
H19      H      0.486600000000     0.139810000000     0.263920000000     0.0399102  
H20      H      0.460400000000     0.390530000000     0.174570000000     0.0307041  
H21      H      0.540760000000     0.172310000000     0.383270000000     0.0250575  
H22      H      0.484710000000     0.266080000000     0.136420000000     0.0347002  
H23      H      0.498090000000     0.357120000000     0.228030000000     0.0343892  
H24      H      0.500560000000     0.319190000000     0.082200000000     0.0370921  
H25      H      0.476370000000     0.086830000000     0.319720000000     0.0295779  
H26      H      0.563100000000     0.219540000000     0.262920000000     0.0429662  
H27      H      0.492690000000     0.176960000000     0.409760000000     0.034352   
H28      H      0.425550000000     0.276720000000     0.228880000000     0.0432364  
H29      H      0.457850000000     0.204250000000     0.351020000000     0.0365295  
H30      H      0.512120000000     0.409920000000     0.173650000000     0.0358179  
H31      H      0.533160000000     0.292390000000     0.142660000000     0.0388641  
H32      H      0.540650000000     0.344890000000     0.194670000000     0.0373499  
H33      H      0.431680000000     0.223670000000     0.282070000000     0.039716   
H34      H      0.447380000000     0.151810000000     0.300770000000     0.0396827  
H35      H      0.451770000000     0.324790000000     0.107210000000     0.0258757  
H36      H      0.575110000000     0.129480000000     0.317690000000     0.0317644  
H37      H      0.431010000000     0.717210000000     0.215710000000     0.0395079  
H38      H      0.487080000000     0.766090000000     0.355830000000     0.0341111  
H39      H      0.491860000000     0.856880000000     0.262950000000     0.0393738  
H40      H      0.532660000000     0.605570000000     0.176330000000     0.0313587  
H41      H      0.451210000000     0.823280000000     0.384990000000     0.0317933  
H42      H      0.500490000000     0.729550000000     0.139270000000     0.0343216  
H43      H      0.495140000000     0.637470000000     0.230690000000     0.0341322  
H44      H      0.487260000000     0.676090000000     0.085210000000     0.0358422  
H45      H      0.505660000000     0.910650000000     0.317030000000     0.0298228  
H46      H      0.423840000000     0.771150000000     0.267700000000     0.0429462  
H47      H      0.500730000000     0.819860000000     0.409160000000     0.0348065  
H48      H      0.563330000000     0.723630000000     0.227060000000     0.0433606  
H49      H      0.533540000000     0.795430000000     0.347830000000     0.0367033  
H50      H      0.481660000000     0.584340000000     0.176050000000     0.0353101  
H51      H      0.454030000000     0.700000000000     0.146440000000     0.0368846  
H52      H      0.450950000000     0.647460000000     0.198700000000     0.0367526  
H53      H      0.556150000000     0.777580000000     0.279010000000     0.0394857  
H54      H      0.535840000000     0.847660000000     0.295050000000     0.0397198  
H55      H      0.536750000000     0.673140000000     0.109480000000     0.0325355  
H56      H      0.409920000000     0.861730000000     0.322870000000     0.0345383  
H57      H      0.511800000000     0.674810000000     0.726930000000     0.0387294  
H58      H      0.468420000000     0.775230000000     0.648060000000     0.0327078  
H59      H      0.552960000000     0.850940000000     0.713370000000     0.0384241  
H60      H      0.525310000000     0.686310000000     0.894340000000     0.0340915  
H61      H      0.509980000000     0.810850000000     0.597460000000     0.0340487  
H62      H      0.553500000000     0.644030000000     0.776620000000     0.0335946  
H63      H      0.478640000000     0.723320000000     0.848950000000     0.0325197  
H64      H      0.538110000000     0.586360000000     0.826210000000     0.0369101  
H65      H      0.534120000000     0.909480000000     0.665750000000     0.0299755  
H66      H      0.513310000000     0.726050000000     0.673770000000     0.0409917  
H67      H      0.458160000000     0.830410000000     0.596670000000     0.0312361  
H68      H      0.521090000000     0.770470000000     0.818470000000     0.0410716  
H69      H      0.451780000000     0.822210000000     0.671540000000     0.0389875  
H70      H      0.472820000000     0.670040000000     0.902070000000     0.0326854  
H71      H      0.499330000000     0.632890000000     0.784040000000     0.036946   
H72      H      0.457910000000     0.676730000000     0.828100000000     0.0397642  
H73      H      0.514760000000     0.821600000000     0.765860000000     0.0385689  
H74      H      0.499110000000     0.864110000000     0.710390000000     0.0389671  
H75      H      0.571230000000     0.626130000000     0.844510000000     0.0314306  
H76      H      0.586920000000     0.826710000000     0.622740000000     0.0355213  
H77      H      0.487890000000     0.176770000000     0.765420000000     0.0383483  
H78      H      0.520160000000     0.275070000000     0.848250000000     0.0324915  
H79      H      0.450640000000     0.355410000000     0.771780000000     0.0383014  
H80      H      0.497400000000     0.184410000000     0.596760000000     0.0339798  
H81      H      0.471570000000     0.312420000000     0.891280000000     0.0328991  
H82      H      0.454830000000     0.145400000000     0.712290000000     0.033614   
H83      H      0.537940000000     0.222220000000     0.646650000000     0.0325675  
H84      H      0.475890000000     0.086440000000     0.667010000000     0.0362939  
H85      H      0.467140000000     0.413150000000     0.822360000000     0.0301213  
H86      H      0.478450000000     0.228520000000     0.816660000000     0.0406085  
H87      H      0.523840000000     0.327700000000     0.901660000000     0.0303373  
H88      H      0.494560000000     0.271110000000     0.672160000000     0.0408192  
H89      H      0.542280000000     0.321460000000     0.828500000000     0.0391928  
H90      H      0.549730000000     0.166250000000     0.596310000000     0.0315078  
H91      H      0.509510000000     0.134060000000     0.711390000000     0.0367328  
H92      H      0.555800000000     0.176270000000     0.671150000000     0.0393426  
H93      H      0.493370000000     0.322970000000     0.724690000000     0.0386432  
H94      H      0.504180000000     0.365190000000     0.782330000000     0.0386433  
H95      H      0.444240000000     0.125070000000     0.644320000000     0.031289   
H96      H      0.401070000000     0.335560000000     0.855570000000     0.035329   
H97      H      0.720910000000     0.207620000000     0.430690000000     0.038971   
H98      H      0.771710000000     0.348560000000     0.483530000000     0.0342873  
H99      H      0.867320000000     0.260620000000     0.471260000000     0.039273   
H100     H      0.623000000000     0.165990000000     0.544830000000     0.0325649  
H101     H      0.824150000000     0.381340000000     0.442710000000     0.0306617  
H102     H      0.739210000000     0.128050000000     0.496280000000     0.0343033  
H103     H      0.650380000000     0.222880000000     0.506330000000     0.0340279  
H104     H      0.682630000000     0.076100000000     0.487930000000     0.0323136  
H105     H      0.919960000000     0.316340000000     0.481590000000     0.0284898  
H106     H      0.772170000000     0.261560000000     0.417870000000     0.0425283  
H107     H      0.823650000000     0.404450000000     0.492530000000     0.0358448  
H108     H      0.744640000000     0.216180000000     0.560370000000     0.0433113  
H109     H      0.806810000000     0.340030000000     0.525530000000     0.0374409  
H110     H      0.593580000000     0.171710000000     0.498680000000     0.0331681  
H111     H      0.705020000000     0.138270000000     0.453930000000     0.0348224  
H112     H      0.653340000000     0.193100000000     0.459840000000     0.0348311  
H113     H      0.796030000000     0.269930000000     0.547540000000     0.0397224  
H114     H      0.862280000000     0.289040000000     0.518120000000     0.0395344  
H115     H      0.684510000000     0.099760000000     0.537520000000     0.0336974  
H116     H      0.856770000000     0.323780000000     0.395250000000     0.0340298  
H117     H      0.727100000000     0.785610000000     0.414680000000     0.0394694  
H118     H      0.844790000000     0.722750000000     0.500690000000     0.0349742  
H119     H      0.775960000000     0.632770000000     0.436150000000     0.0390589  
H120     H      0.669450000000     0.872490000000     0.526300000000     0.0338036  
H121     H      0.893270000000     0.677180000000     0.466710000000     0.0338125  
H122     H      0.629630000000     0.759710000000     0.467410000000     0.0338646  
H123     H      0.725880000000     0.844950000000     0.488280000000     0.0347423  
H124     H      0.579040000000     0.818570000000     0.461090000000     0.0348545  
H125     H      0.824670000000     0.577910000000     0.463170000000     0.0341418  
H126     H      0.783010000000     0.735040000000     0.408660000000     0.042296   
H127     H      0.896440000000     0.670180000000     0.521290000000     0.0319545  
H128     H      0.697890000000     0.739190000000     0.534860000000     0.0436822  
H129     H      0.822970000000     0.680760000000     0.529480000000     0.038199   
H130     H      0.675050000000     0.903210000000     0.481180000000     0.0368923  
H131     H      0.642940000000     0.796990000000     0.428850000000     0.0370534  
H132     H      0.697550000000     0.845790000000     0.440760000000     0.0362027  
H133     H      0.751850000000     0.687210000000     0.527920000000     0.0396683  
H134     H      0.779740000000     0.628270000000     0.490810000000     0.0398902  
H135     H      0.599010000000     0.809990000000     0.511570000000     0.0337193  
H136     H      0.859270000000     0.651770000000     0.392940000000     0.0272689  
H137     H      0.222690000000     0.282660000000     0.427610000000     0.039227   
H138     H      0.370610000000     0.237910000000     0.480210000000     0.0342714  
H139     H      0.273930000000     0.151780000000     0.495140000000     0.0401256  
H140     H      0.185030000000     0.402540000000     0.519250000000     0.0376824  
H141     H      0.397000000000     0.178480000000     0.446450000000     0.0320771  
H142     H      0.151150000000     0.273560000000     0.503370000000     0.0350169  
H143     H      0.237480000000     0.368480000000     0.481510000000     0.0344125  
H144     H      0.093130000000     0.323350000000     0.488490000000     0.0346004  
H145     H      0.326110000000     0.095650000000     0.505210000000     0.0299711  
H146     H      0.276240000000     0.229800000000     0.421750000000     0.0430094  
H147     H      0.422650000000     0.181750000000     0.494840000000     0.0346782  
H148     H      0.243190000000     0.288680000000     0.558000000000     0.0444188  
H149     H      0.363780000000     0.211420000000     0.528190000000     0.0371078  
H150     H      0.178300000000     0.417250000000     0.467010000000     0.0282451  
H151     H      0.153450000000     0.298460000000     0.454140000000     0.0361813  
H152     H      0.202420000000     0.352540000000     0.441750000000     0.0341733  
H153     H      0.296620000000     0.235510000000     0.552100000000     0.0404728  
H154     H      0.310080000000     0.161040000000     0.535770000000     0.0408838  
H155     H      0.119940000000     0.331160000000     0.535740000000     0.0343545  
H156     H      0.331340000000     0.143490000000     0.409470000000     0.0354655  
H157     H      0.209570000000     0.719760000000     0.557820000000     0.0396136  
H158     H      0.349220000000     0.772530000000     0.508520000000     0.0341374  
H159     H      0.259720000000     0.867330000000     0.511890000000     0.0393856  
H160     H      0.168760000000     0.620110000000     0.444560000000     0.0325602  
H161     H      0.379960000000     0.826850000000     0.548210000000     0.0311548  
H162     H      0.130170000000     0.736000000000     0.492350000000     0.0343962  
H163     H      0.226070000000     0.648260000000     0.482290000000     0.0342568  
H164     H      0.078410000000     0.679720000000     0.500720000000     0.0353951  
H165     H      0.316100000000     0.919620000000     0.500580000000     0.0291801  
H166     H      0.261770000000     0.772890000000     0.570290000000     0.0427873  
H167     H      0.405230000000     0.824120000000     0.499480000000     0.0357007  
H168     H      0.219020000000     0.741180000000     0.427820000000     0.0435455  
H169     H      0.342250000000     0.805290000000     0.464530000000     0.0375158  
H170     H      0.174980000000     0.591280000000     0.490950000000     0.0344054  
H171     H      0.140810000000     0.702230000000     0.534850000000     0.0371339  
H172     H      0.196610000000     0.651370000000     0.529030000000     0.0369995  
H173     H      0.271390000000     0.794070000000     0.440260000000     0.039551   
H174     H      0.290390000000     0.860060000000     0.466710000000     0.0394004  
H175     H      0.102680000000     0.680900000000     0.451350000000     0.0323556  
H176     H      0.319570000000     0.863000000000     0.591370000000     0.0346376  
H177     H      0.691750000000     0.539930000000     0.237080000000     0.0396851  
H178     H      0.772370000000     0.451070000000     0.353600000000     0.0348345  
H179     H      0.835560000000     0.542100000000     0.284570000000     0.0367793  
H180     H      0.615880000000     0.428800000000     0.164490000000     0.0324258  
H181     H      0.803510000000     0.495950000000     0.403720000000     0.0361513  
H182     H      0.729050000000     0.492060000000     0.142170000000     0.0341573  
H183     H      0.636490000000     0.460180000000     0.228230000000     0.0343375  
H184     H      0.675840000000     0.500940000000     0.087910000000     0.0352203  
H185     H      0.891180000000     0.545740000000     0.338090000000     0.0248693  
H186     H      0.740270000000     0.549640000000     0.293690000000     0.0428432  
H187     H      0.831830000000     0.448610000000     0.403770000000     0.0337076  
H188     H      0.748360000000     0.423500000000     0.209050000000     0.0430245  
H189     H      0.821710000000     0.438780000000     0.331080000000     0.0371499  
H190     H      0.581840000000     0.470850000000     0.174740000000     0.0363309  
H191     H      0.690150000000     0.529270000000     0.155630000000     0.0380945  
H192     H      0.636130000000     0.510800000000     0.205850000000     0.0368257  
H193     H      0.798880000000     0.434720000000     0.263900000000     0.039802   
H194     H      0.859370000000     0.492860000000     0.292470000000     0.0415619  
H195     H      0.679770000000     0.449150000000     0.106450000000     0.0326436  
H196     H      0.808810000000     0.596250000000     0.336440000000     0.0280504  
H197     H      0.208980000000     0.455320000000     0.273970000000     0.0387038  
H198     H      0.263630000000     0.513010000000     0.133970000000     0.0346637  
H199     H      0.353440000000     0.502130000000     0.227540000000     0.0394123  
H200     H      0.106150000000     0.562340000000     0.320960000000     0.0325168  
H201     H      0.315880000000     0.471550000000     0.103250000000     0.0305288  
H202     H      0.227560000000     0.523680000000     0.352870000000     0.0340337  
H203     H      0.133560000000     0.525800000000     0.262720000000     0.0342138  
H204     H      0.174930000000     0.512080000000     0.407560000000     0.032503   
H205     H      0.409600000000     0.510090000000     0.174280000000     0.0285077  
H206     H      0.261740000000     0.444970000000     0.221090000000     0.0430073  
H207     H      0.320210000000     0.521840000000     0.081560000000     0.0361906  
H208     H      0.227070000000     0.586190000000     0.266250000000     0.0433618  
H209     H      0.298810000000     0.554550000000     0.144270000000     0.0367017  
H210     H      0.080090000000     0.513980000000     0.316830000000     0.0322746  
H211     H      0.196430000000     0.478550000000     0.344760000000     0.0345772  
H212     H      0.141680000000     0.479770000000     0.292290000000     0.0345313  
H213     H      0.280240000000     0.575740000000     0.213600000000     0.0395412  
H214     H      0.350360000000     0.547780000000     0.196990000000     0.0393637  
H215     H      0.170820000000     0.561060000000     0.382820000000     0.0329367  
H216     H      0.348930000000     0.422470000000     0.161350000000     0.0337098  
H217     H      0.282030000000     0.426770000000     0.778830000000     0.0402119  
H218     H      0.142870000000     0.483190000000     0.725610000000     0.034494   
H219     H      0.234150000000     0.473230000000     0.633110000000     0.039224   
H220     H      0.322020000000     0.535650000000     0.882750000000     0.0313322  
H221     H      0.110900000000     0.444320000000     0.671490000000     0.0316821  
H222     H      0.361840000000     0.493780000000     0.762830000000     0.0345076  
H223     H      0.267370000000     0.496870000000     0.852300000000     0.0342973  
H224     H      0.414670000000     0.484340000000     0.818510000000     0.0367408  
H225     H      0.179870000000     0.483670000000     0.579080000000     0.0283217  
H226     H      0.229500000000     0.416380000000     0.725620000000     0.0431976  
H227     H      0.088700000000     0.494670000000     0.672390000000     0.0353092  
H228     H      0.275260000000     0.557550000000     0.759930000000     0.0435963  
H229     H      0.152910000000     0.526230000000     0.692340000000     0.0372128  
H230     H      0.320670000000     0.486730000000     0.907760000000     0.0359998  
H231     H      0.353080000000     0.450030000000     0.795480000000     0.0384652  
H232     H      0.298980000000     0.451740000000     0.846590000000     0.0374579  
H233     H      0.223140000000     0.547140000000     0.706400000000     0.0395764  
H234     H      0.205320000000     0.520010000000     0.638380000000     0.0393555  
H235     H      0.390600000000     0.533850000000     0.817300000000     0.0332617  
H236     H      0.168770000000     0.397420000000     0.642100000000     0.0357227  
H237     H      0.784950000000     0.551870000000     0.716440000000     0.0401615  
H238     H      0.641610000000     0.500150000000     0.766070000000     0.0342032  
H239     H      0.733920000000     0.501060000000     0.857980000000     0.0393575  
H240     H      0.824630000000     0.444390000000     0.611130000000     0.0323875  
H241     H      0.611630000000     0.539800000000     0.820290000000     0.0305753  
H242     H      0.862000000000     0.482420000000     0.731070000000     0.0348349  
H243     H      0.768370000000     0.482480000000     0.640530000000     0.0343873  
H244     H      0.915570000000     0.493320000000     0.676740000000     0.0378644  
H245     H      0.679290000000     0.494060000000     0.912130000000     0.027877   
H246     H      0.731700000000     0.562670000000     0.768710000000     0.0433619  
H247     H      0.587130000000     0.490550000000     0.820090000000     0.0356284  
H248     H      0.771690000000     0.420890000000     0.730070000000     0.0433905  
H249     H      0.648970000000     0.455930000000     0.798450000000     0.0370494  
H250     H      0.821350000000     0.493170000000     0.585880000000     0.036149   
H251     H      0.853830000000     0.527620000000     0.700230000000     0.0388781  
H252     H      0.799710000000     0.527620000000     0.647760000000     0.0377221  
H253     H      0.718490000000     0.431760000000     0.782540000000     0.039702   
H254     H      0.700970000000     0.457180000000     0.851900000000     0.0395119  
H255     H      0.890190000000     0.444460000000     0.674340000000     0.032832   
H256     H      0.672650000000     0.582940000000     0.852300000000     0.0357691  
H257     H      0.734000000000     0.700920000000     0.071510000000     0.0403087  
H258     H      0.865370000000     0.760840000000     0.995500000000     0.0353087  
H259     H      0.783070000000     0.848500000000     0.046180000000     0.038507   
H260     H      0.679410000000     0.610850000000     0.960300000000     0.0376299  
H261     H      0.906170000000     0.810360000000     0.033430000000     0.035774   
H262     H      0.645180000000     0.728590000000     0.009830000000     0.03375    
H263     H      0.735620000000     0.635390000000     0.000610000000     0.0342756  
H264     H      0.589990000000     0.674360000000     0.016860000000     0.03909    
H265     H      0.831590000000     0.905130000000     0.024170000000     0.0348151  
H266     H      0.790370000000     0.750660000000     0.080290000000     0.0427227  
H267     H      0.916250000000     0.816170000000     0.979600000000     0.0299091  
H268     H      0.721330000000     0.737580000000     0.945290000000     0.0444947  
H269     H      0.845300000000     0.800360000000     0.962320000000     0.0384317  
H270     H      0.680320000000     0.581480000000     0.006690000000     0.0403419  
H271     H      0.653230000000     0.693180000000     0.051470000000     0.0361305  
H272     H      0.704280000000     0.639610000000     0.046050000000     0.0352941  
H273     H      0.775910000000     0.788500000000     0.954460000000     0.039813   
H274     H      0.794490000000     0.851330000000     0.992440000000     0.0377957  
H275     H      0.613320000000     0.677830000000     0.967230000000     0.0354572  
H276     H      0.853280000000     0.836850000000     0.103020000000     0.0286843  
H277     H      0.776040000000     0.206660000000     0.062300000000     0.038927   
H278     H      0.727920000000     0.350880000000     0.012480000000     0.0343234  
H279     H      0.632310000000     0.262300000000     0.018380000000     0.0389819  
H280     H      0.877840000000     0.169880000000     0.949560000000     0.0343773  
H281     H      0.673670000000     0.382760000000     0.051730000000     0.0325141  
H282     H      0.760210000000     0.129600000000     0.993470000000     0.0308448  
H283     H      0.849470000000     0.224440000000     0.990310000000     0.0314634  
H284     H      0.816920000000     0.077130000000     0.001430000000     0.0404643  
H285     H      0.579940000000     0.318030000000     0.007400000000     0.0294889  
H286     H      0.724930000000     0.260850000000     0.075090000000     0.0437216  
H287     H      0.675910000000     0.406810000000     0.002430000000     0.0359157  
H288     H      0.757820000000     0.220500000000     0.932230000000     0.0428878  
H289     H      0.694770000000     0.343360000000     0.968790000000     0.0346506  
H290     H      0.905900000000     0.172690000000     0.996790000000     0.0377181  
H291     H      0.793340000000     0.137870000000     0.037030000000     0.0351228  
H292     H      0.845130000000     0.192220000000     0.035020000000     0.0363456  
H293     H      0.706620000000     0.274410000000     0.944970000000     0.0403804  
H294     H      0.639130000000     0.292020000000     0.972560000000     0.0367209  
H295     H      0.815400000000     0.102220000000     0.952560000000     0.0343859  
H296     H      0.639210000000     0.323900000000     0.096540000000     0.0346254  
H297     H      0.300490000000     0.733420000000     0.072470000000     0.0396344  
H298     H      0.237480000000     0.864500000000     0.998180000000     0.0320328  
H299     H      0.153340000000     0.784870000000     0.058520000000     0.0373784  
H300     H      0.384100000000     0.674590000000     0.957020000000     0.0329056  
H301     H      0.196910000000     0.907970000000     0.042620000000     0.0332408  
H302     H      0.268610000000     0.644980000000     0.016550000000     0.0348929  
H303     H      0.360950000000     0.733990000000     0.993710000000     0.030885   
H304     H      0.323210000000     0.590560000000     0.023130000000     0.0355175  
H305     H      0.099240000000     0.839900000000     0.058370000000     0.0285858  
H306     H      0.252420000000     0.790370000000     0.084190000000     0.043793   
H307     H      0.181550000000     0.917690000000     0.990690000000     0.0305381  
H308     H      0.254850000000     0.720850000000     0.949040000000     0.0435963  
H309     H      0.192420000000     0.847050000000     0.970880000000     0.0346887  
H310     H      0.415660000000     0.679630000000     0.001730000000     0.0394823  
H311     H      0.307000000000     0.655860000000     0.054970000000     0.0374277  
H312     H      0.360090000000     0.707040000000     0.041920000000     0.0352743  
H313     H      0.205300000000     0.776500000000     0.961530000000     0.0403942  
H314     H      0.141930000000     0.801890000000     0.007330000000     0.0419893  
H315     H      0.317330000000     0.611120000000     0.972490000000     0.0296157  
H316     H      0.153060000000     0.825740000000     0.128980000000     0.0270309  
H317     H      0.209010000000     0.225980000000     0.048530000000     0.0382913  
H318     H      0.352480000000     0.270150000000     0.991860000000     0.033379   
H319     H      0.262240000000     0.364130000000     0.991190000000     0.0386854  
H320     H      0.170300000000     0.114380000000     0.947370000000     0.0330094  
H321     H      0.385050000000     0.323950000000     0.029520000000     0.0284003  
H322     H      0.131170000000     0.235790000000     0.979000000000     0.0343823  
H323     H      0.226310000000     0.146770000000     0.983230000000     0.0343868  
H324     H      0.078650000000     0.180980000000     0.993820000000     0.0304373  
H325     H      0.318520000000     0.416740000000     0.981170000000     0.0289129  
H326     H      0.263060000000     0.278040000000     0.056300000000     0.0426787  
H327     H      0.407940000000     0.323330000000     0.979600000000     0.0355646  
H328     H      0.221520000000     0.232770000000     0.917170000000     0.0430782  
H329     H      0.345200000000     0.301750000000     0.947130000000     0.0369435  
H330     H      0.174470000000     0.091900000000     0.997330000000     0.0314346  
H331     H      0.140280000000     0.207710000000     0.025730000000     0.0367156  
H332     H      0.195200000000     0.155950000000     0.028100000000     0.0370381  
H333     H      0.275400000000     0.285200000000     0.925010000000     0.0397348  
H334     H      0.294730000000     0.355900000000     0.947440000000     0.0397104  
H335     H      0.103260000000     0.176530000000     0.944800000000     0.0336597  
H336     H      0.325160000000     0.363050000000     0.073630000000     0.032199   
H337     H      0.789760000000     0.927570000000     0.764820000000     0.0396584  
H338     H      0.649330000000     0.991100000000     0.722470000000     0.0335352  
H339     H      0.738840000000     0.992470000000     0.627990000000     0.0383234  
H340     H      0.829760000000     0.025780000000     0.879620000000     0.0349151  
H341     H      0.614770000000     0.957320000000     0.667450000000     0.0335799  
H342     H      0.870880000000     0.992100000000     0.757160000000     0.0340675  
H343     H      0.774950000000     0.991440000000     0.845050000000     0.0343438  
H344     H      0.922060000000     0.974550000000     0.813520000000     0.0343236  
H345     H      0.682480000000     0.007400000000     0.576540000000     0.0301279  
H346     H      0.735490000000     0.923750000000     0.712510000000     0.0434497  
H347     H      0.594030000000     0.008120000000     0.670420000000     0.0371305  
H348     H      0.783680000000     0.059700000000     0.761380000000     0.0438     
H349     H      0.658260000000     0.036990000000     0.692990000000     0.0366443  
H350     H      0.826860000000     0.974910000000     0.900170000000     0.0353973  
H351     H      0.859600000000     0.946200000000     0.785790000000     0.0360365  
H352     H      0.805200000000     0.945940000000     0.836120000000     0.0365562  
H353     H      0.729530000000     0.055860000000     0.708900000000     0.0398984  
H354     H      0.708280000000     0.037140000000     0.638480000000     0.0392436  
H355     H      0.901660000000     0.025580000000     0.814490000000     0.0347227  
H356     H      0.676190000000     0.912710000000     0.626460000000     0.0359798  
H357     H      0.230500000000     0.070410000000     0.787460000000     0.0399152  
H358     H      0.368800000000     0.008910000000     0.732160000000     0.0353066  
H359     H      0.271570000000     0.013320000000     0.645540000000     0.0399599  
H360     H      0.186540000000     0.971700000000     0.899250000000     0.0304681  
H361     H      0.397840000000     0.044710000000     0.674840000000     0.0301323  
H362     H      0.152340000000     0.000140000000     0.772620000000     0.0343444  
H363     H      0.241220000000     0.008660000000     0.867200000000     0.0342108  
H364     H      0.096070000000     0.012670000000     0.824030000000     0.03636    
H365     H      0.322880000000     0.997840000000     0.589100000000     0.0302144  
H366     H      0.281700000000     0.076850000000     0.732400000000     0.0432089  
H367     H      0.419250000000     0.994060000000     0.675900000000     0.0349574  
H368     H      0.237470000000     0.938590000000     0.778470000000     0.043761   
H369     H      0.356620000000     0.964300000000     0.701810000000     0.0378367  
H370     H      0.183540000000     0.023200000000     0.918090000000     0.0343281  
H371     H      0.157800000000     0.046840000000     0.801730000000     0.0366482  
H372     H      0.208800000000     0.051900000000     0.855210000000     0.036255   
H373     H      0.288190000000     0.945010000000     0.723070000000     0.0399649  
H374     H      0.301080000000     0.967200000000     0.652000000000     0.0402771  
H375     H      0.121400000000     0.963980000000     0.828300000000     0.0331996  
H376     H      0.338150000000     0.090930000000     0.640010000000     0.0343952  
H377     H      0.256920000000     0.931330000000     0.303750000000     0.0397211  
H378     H      0.134550000000     0.010080000000     0.233110000000     0.0345265  
H379     H      0.206230000000     0.936580000000     0.152720000000     0.0397035  
H380     H      0.319320000000     0.047270000000     0.377880000000     0.0352261  
H381     H      0.088010000000     0.971890000000     0.188560000000     0.0334819  
H382     H      0.352580000000     0.988590000000     0.266430000000     0.0347538  
H383     H      0.262440000000     0.004200000000     0.359060000000     0.0356932  
H384     H      0.408340000000     0.988020000000     0.319780000000     0.0366755  
H385     H      0.159620000000     0.957290000000     0.093810000000     0.0367487  
H386     H      0.199810000000     0.920420000000     0.255440000000     0.0423956  
H387     H      0.085030000000     0.025720000000     0.176740000000     0.0256516  
H388     H      0.282950000000     0.047920000000     0.247000000000     0.0427329  
H389     H      0.157900000000     0.035290000000     0.189750000000     0.0354251  
H390     H      0.317650000000     0.004820000000     0.412910000000     0.037677   
H391     H      0.345430000000     0.949650000000     0.304980000000     0.039514   
H392     H      0.294360000000     0.958820000000     0.358620000000     0.0373068  
H393     H      0.227980000000     0.035910000000     0.197250000000     0.0386496  
H394     H      0.203420000000     0.990550000000     0.142050000000     0.0390445  
H395     H      0.382570000000     0.036330000000     0.314340000000     0.0326649  
H396     H      0.120790000000     0.898980000000     0.174960000000     0.0271271  
H397     H      0.693060000000     0.937400000000     0.249080000000     0.0393674  
H398     H      0.769030000000     0.039170000000     0.137740000000     0.0351177  
H399     H      0.834180000000     0.945080000000     0.200810000000     0.0368726  
H400     H      0.614330000000     0.043050000000     0.325720000000     0.0262535  
H401     H      0.801720000000     0.999070000000     0.084590000000     0.036143   
H402     H      0.727490000000     0.977480000000     0.347170000000     0.0336512  
H403     H      0.635800000000     0.013700000000     0.262160000000     0.0362685  
H404     H      0.671970000000     0.963920000000     0.399860000000     0.0352398  
H405     H      0.889390000000     0.945650000000     0.147170000000     0.0248758  
H406     H      0.740640000000     0.934750000000     0.190900000000     0.0421897  
H407     H      0.829420000000     0.046630000000     0.088200000000     0.0307573  
H408     H      0.744570000000     0.053890000000     0.285330000000     0.0425133  
H409     H      0.817850000000     0.051200000000     0.161460000000     0.0373826  
H410     H      0.580900000000     0.000520000000     0.314910000000     0.0362637  
H411     H      0.688490000000     0.941600000000     0.330920000000     0.0375052  
H412     H      0.635670000000     0.962370000000     0.282890000000     0.0374606  
H413     H      0.794190000000     0.049780000000     0.228670000000     0.0400034  
H414     H      0.857030000000     0.995230000000     0.196140000000     0.0421796  
H415     H      0.679910000000     0.016920000000     0.387280000000     0.0287979  
H416     H      0.798970000000     0.901760000000     0.143350000000     0.0287643  
H417     H      0.956140000000     0.269520000000     0.701780000000     0.0399082  
H418     H      0.012170000000     0.128980000000     0.758480000000     0.0346277  
H419     H      0.005940000000     0.225400000000     0.845280000000     0.0393116  
H420     H      0.062500000000     0.317900000000     0.598320000000     0.0327238  
H421     H      0.972020000000     0.099910000000     0.812660000000     0.0320008  
H422     H      0.025690000000     0.347720000000     0.720330000000     0.034439   
H423     H      0.026060000000     0.259130000000     0.625290000000     0.03456    
H424     H      0.014140000000     0.403570000000     0.669370000000     0.0364727  
H425     H      0.015330000000     0.173360000000     0.902250000000     0.0293856  
H426     H      0.945980000000     0.217350000000     0.755100000000     0.0433407  
H427     H      0.022520000000     0.078030000000     0.816040000000     0.0352253  
H428     H      0.087750000000     0.260600000000     0.717900000000     0.0435059  
H429     H      0.055300000000     0.139590000000     0.791570000000     0.0367183  
H430     H      0.013390000000     0.314610000000     0.573290000000     0.0348576  
H431     H      0.979900000000     0.340510000000     0.689850000000     0.0374257  
H432     H      0.980030000000     0.288680000000     0.634580000000     0.0368203  
H433     H      0.077520000000     0.208530000000     0.771440000000     0.0397955  
H434     H      0.051150000000     0.193950000000     0.841580000000     0.0393601  
H435     H      0.062840000000     0.378160000000     0.663840000000     0.032558   
H436     H      0.924760000000     0.162950000000     0.845310000000     0.0354047  
H437     H      0.942840000000     0.771420000000     0.792190000000     0.0398129  
H438     H      0.986890000000     0.722750000000     0.649150000000     0.0343528  
H439     H      0.992930000000     0.627150000000     0.737010000000     0.0389251  
H440     H      0.054050000000     0.877150000000     0.825650000000     0.0324798  
H441     H      0.947590000000     0.667330000000     0.619930000000     0.0318878  
H442     H      0.014340000000     0.758890000000     0.867050000000     0.0341634  
H443     H      0.013570000000     0.846960000000     0.771600000000     0.0342014  
H444     H      0.005920000000     0.815120000000     0.919080000000     0.0349471  
H445     H      0.002860000000     0.575840000000     0.679700000000     0.029239   
H446     H      0.929810000000     0.718450000000     0.740220000000     0.0428308  
H447     H      0.995150000000     0.671800000000     0.592420000000     0.0352206  
H448     H      0.073710000000     0.757090000000     0.774290000000     0.0434733  
H449     H      0.032790000000     0.691850000000     0.653180000000     0.0375345  
H450     H      0.005570000000     0.903440000000     0.823050000000     0.0359901  
H451     H      0.969370000000     0.790430000000     0.859280000000     0.0365683  
H452     H      0.968970000000     0.841500000000     0.804080000000     0.0368552  
H453     H      0.060690000000     0.704260000000     0.722240000000     0.0394587  
H454     H      0.035990000000     0.636650000000     0.703860000000     0.0391342  
H455     H      0.054350000000     0.815670000000     0.892620000000     0.0321354  
H456     H      0.909080000000     0.628440000000     0.682400000000     0.0349094  
H457     H      0.949120000000     0.726700000000     0.285850000000     0.0394008  
H458     H      0.005470000000     0.869630000000     0.236970000000     0.0342774  
H459     H      0.015910000000     0.773310000000     0.150560000000     0.0393092  
H460     H      0.045850000000     0.680660000000     0.399170000000     0.0330082  
H461     H      0.969390000000     0.897380000000     0.179990000000     0.0306121  
H462     H      0.020770000000     0.650930000000     0.273440000000     0.0344145  
H463     H      0.010360000000     0.738090000000     0.369180000000     0.0343315  
H464     H      0.004980000000     0.594190000000     0.322830000000     0.0349301  
H465     H      0.025470000000     0.826090000000     0.094310000000     0.0287227  
H466     H      0.943410000000     0.779410000000     0.232480000000     0.0428385  
H467     H      0.019140000000     0.921100000000     0.179730000000     0.0361095  
H468     H      0.081410000000     0.739830000000     0.284720000000     0.0435938  
H469     H      0.052340000000     0.862030000000     0.208400000000     0.0357174  
H470     H      0.994280000000     0.681400000000     0.418960000000     0.0346604  
H471     H      0.972430000000     0.656860000000     0.300040000000     0.0364296  
H472     H      0.966400000000     0.707230000000     0.355300000000     0.0363555  
H473     H      0.075580000000     0.792740000000     0.231240000000     0.0394025  
H474     H      0.057290000000     0.809000000000     0.158350000000     0.0384387  
H475     H      0.053320000000     0.619370000000     0.331590000000     0.0332157  
H476     H      0.929440000000     0.828900000000     0.142590000000     0.034183   
H477     H      0.046010000000     0.225260000000     0.201360000000     0.0383677  
H478     H      0.991290000000     0.368390000000     0.257220000000     0.0340412  
H479     H      0.002100000000     0.272600000000     0.344330000000     0.0404686  
H480     H      0.937040000000     0.178600000000     0.099910000000     0.0332624  
H481     H      0.032450000000     0.397840000000     0.310860000000     0.0259814  
H482     H      0.974900000000     0.148250000000     0.221590000000     0.0341791  
H483     H      0.975710000000     0.236250000000     0.126050000000     0.0342295  
H484     H      0.984460000000     0.091770000000     0.170550000000     0.0319269  
H485     H      0.992610000000     0.324370000000     0.401150000000     0.0309053  
H486     H      0.057920000000     0.278460000000     0.253350000000     0.0422355  
H487     H      0.981910000000     0.419640000000     0.314430000000     0.0335169  
H488     H      0.914890000000     0.236520000000     0.219600000000     0.0430738  
H489     H      0.949170000000     0.357250000000     0.291410000000     0.0373437  
H490     H      0.985850000000     0.180240000000     0.074230000000     0.0330683  
H491     H      0.020390000000     0.154080000000     0.190410000000     0.0344036  
H492     H      0.020910000000     0.205330000000     0.134870000000     0.0343042  
H493     H      0.926830000000     0.289370000000     0.271950000000     0.0396351  
H494     H      0.955840000000     0.302560000000     0.341540000000     0.0418656  
H495     H      0.936140000000     0.118120000000     0.166040000000     0.033185   
H496     H      0.081040000000     0.335720000000     0.341240000000     0.0325421  
N1       N      0.497650000000     0.126050000000     0.368040000000    -0.197408   
N2       N      0.503060000000     0.186330000000     0.306850000000    -0.110759   
N3       N      0.485730000000     0.309870000000     0.184760000000    -0.112649   
N4       N      0.495260000000     0.370150000000     0.123810000000    -0.192543   
N5       N      0.492440000000     0.870450000000     0.367440000000    -0.195521   
N6       N      0.483630000000     0.809610000000     0.307350000000    -0.111009   
N7       N      0.503570000000     0.685350000000     0.187180000000    -0.112592   
N8       N      0.496120000000     0.625280000000     0.126410000000    -0.191278   
N9       N      0.503520000000     0.870380000000     0.622500000000    -0.193128   
N10      N      0.515430000000     0.807720000000     0.681140000000    -0.109807   
N11      N      0.520530000000     0.688820000000     0.811270000000    -0.11145    
N12      N      0.512170000000     0.627080000000     0.871360000000    -0.188482   
N13      N      0.486800000000     0.371630000000     0.869410000000    -0.195212   
N14      N      0.480380000000     0.310050000000     0.808690000000    -0.109771   
N15      N      0.491730000000     0.189200000000     0.680390000000    -0.111063   
N16      N      0.505570000000     0.125620000000     0.622880000000    -0.190548   
N17      N      0.875830000000     0.365560000000     0.479010000000    -0.194054   
N18      N      0.816670000000     0.302220000000     0.472790000000    -0.111066   
N19      N      0.697830000000     0.177800000000     0.505790000000    -0.112692   
N20      N      0.634030000000     0.119140000000     0.501370000000    -0.193222   
N21      N      0.867490000000     0.621380000000     0.488060000000    -0.192338   
N22      N      0.808220000000     0.681540000000     0.465380000000    -0.111269   
N23      N      0.679380000000     0.799140000000     0.483250000000    -0.112323   
N24      N      0.621790000000     0.863740000000     0.483150000000    -0.188301   
N25      N      0.378110000000     0.133020000000     0.488780000000    -0.193993   
N26      N      0.319990000000     0.196480000000     0.481570000000    -0.11083    
N27      N      0.197140000000     0.319880000000     0.498390000000    -0.111732   
N28      N      0.132400000000     0.376470000000     0.491110000000    -0.193068   
N29      N      0.365430000000     0.876420000000     0.508860000000    -0.191893   
N30      N      0.301950000000     0.817340000000     0.515030000000    -0.111072   
N31      N      0.180460000000     0.695160000000     0.482900000000    -0.112597   
N32      N      0.122020000000     0.631240000000     0.488300000000    -0.190153   
N33      N      0.862770000000     0.499940000000     0.376330000000    -0.193246   
N34      N      0.799210000000     0.499170000000     0.318320000000    -0.110292   
N35      N      0.686220000000     0.472030000000     0.187330000000    -0.112654   
N36      N      0.625630000000     0.479780000000     0.125710000000    -0.189733   
N37      N      0.368650000000     0.504090000000     0.123000000000    -0.19616    
N38      N      0.305750000000     0.501760000000     0.182630000000    -0.110725   
N39      N      0.183270000000     0.529180000000     0.305100000000    -0.112577   
N40      N      0.122930000000     0.519960000000     0.367040000000    -0.192594   
N41      N      0.129160000000     0.481600000000     0.621490000000    -0.1941     
N42      N      0.190750000000     0.473420000000     0.682120000000    -0.111039   
N43      N      0.312360000000     0.500770000000     0.805040000000    -0.112368   
N44      N      0.372090000000     0.497060000000     0.867420000000    -0.189096   
N45      N      0.628650000000     0.502180000000     0.870410000000    -0.192262   
N46      N      0.690020000000     0.506050000000     0.809630000000    -0.111012   
N47      N      0.812690000000     0.477660000000     0.688330000000    -0.112814   
N48      N      0.873010000000     0.484980000000     0.626720000000    -0.187662   
N49      N      0.880190000000     0.863840000000     0.007160000000    -0.191374   
N50      N      0.822060000000     0.800890000000     0.023900000000    -0.110251   
N51      N      0.692600000000     0.684660000000     0.999740000000    -0.116979   
N52      N      0.630280000000     0.624590000000     0.000250000000    -0.181026   
N53      N      0.623560000000     0.367430000000     0.013150000000    -0.193328   
N54      N      0.682880000000     0.304000000000     0.019980000000    -0.112109   
N55      N      0.802000000000     0.179500000000     0.987070000000    -0.115475   
N56      N      0.865580000000     0.120440000000     0.989670000000    -0.187353   
N57      N      0.138090000000     0.883690000000     0.027370000000    -0.193335   
N58      N      0.199450000000     0.822900000000     0.031440000000    -0.110848   
N59      N      0.311480000000     0.691600000000     0.000240000000    -0.112831   
N60      N      0.372290000000     0.629560000000     0.002120000000    -0.187492   
N61      N      0.367920000000     0.374400000000     0.992430000000    -0.197561   
N62      N      0.305280000000     0.315120000000     0.997570000000    -0.111206   
N63      N      0.181170000000     0.193630000000     0.976220000000    -0.111638   
N64      N      0.121960000000     0.131350000000     0.987420000000    -0.194953   
N65      N      0.633030000000     0.995870000000     0.618570000000    -0.192967   
N66      N      0.696030000000     0.985590000000     0.677040000000    -0.111638   
N67      N      0.821000000000     0.997770000000     0.799070000000    -0.112372   
N68      N      0.879340000000     0.987470000000     0.862000000000    -0.186965   
N69      N      0.375920000000     0.006280000000     0.627320000000    -0.191935   
N70      N      0.318370000000     0.016770000000     0.691240000000    -0.110543   
N71      N      0.199260000000     0.998540000000     0.818170000000    -0.113456   
N72      N      0.135740000000     0.005220000000     0.876300000000    -0.189639   
N73      N      0.116590000000     0.988670000000     0.132570000000    -0.197273   
N74      N      0.173200000000     0.971560000000     0.196980000000    -0.111466   
N75      N      0.305010000000     0.001110000000     0.309540000000    -0.111374   
N76      N      0.367790000000     0.005220000000     0.369290000000    -0.187416   
N77      N      0.860600000000     0.994020000000     0.112500000000    -0.19413    
N78      N      0.797000000000     0.989480000000     0.169860000000    -0.110818   
N79      N      0.684920000000     0.001070000000     0.303550000000    -0.111629   
N80      N      0.624140000000     0.992280000000     0.364360000000    -0.193603   
N81      N      0.006550000000     0.121040000000     0.863440000000    -0.191804   
N82      N      0.003260000000     0.179200000000     0.799140000000    -0.110603   
N83      N      0.030230000000     0.300540000000     0.675490000000    -0.112649   
N84      N      0.020490000000     0.363950000000     0.616690000000    -0.188305   
N85      N      0.989390000000     0.618890000000     0.631740000000    -0.190764   
N86      N      0.984980000000     0.677380000000     0.695980000000    -0.111005   
N87      N      0.018540000000     0.800050000000     0.816630000000    -0.112857   
N88      N      0.014420000000     0.863950000000     0.875350000000    -0.186667   
N89      N      0.008080000000     0.877190000000     0.131860000000    -0.193162   
N90      N      0.004010000000     0.819360000000     0.195460000000    -0.110751   
N91      N      0.020700000000     0.697270000000     0.319380000000    -0.112522   
N92      N      0.008150000000     0.633030000000     0.376200000000    -0.189267   
N93      N      0.998330000000     0.376970000000     0.362000000000    -0.195933   
N94      N      0.001990000000     0.318380000000     0.297710000000    -0.110286   
N95      N      0.970940000000     0.195250000000     0.176520000000    -0.112607   
N96      N      0.977710000000     0.131200000000     0.117890000000    -0.191942   
O1       O      0.987610000000     0.110780000000     0.050000000000    -0.620013   
O2       O      0.006650000000     0.891070000000     0.061800000000    -0.569195   
O3       O      0.931600000000     0.997470000000     0.102320000000    -0.602818   
O4       O      0.050120000000     0.002650000000     0.111120000000    -0.634736   
O5       O      0.105210000000     0.997870000000     0.062880000000    -0.621937   
O6       O      0.884220000000     0.999160000000     0.046460000000    -0.57859    
O7       O      0.002730000000     0.945290000000     0.110650000000    -0.606208   
O8       O      0.985390000000     0.061380000000     0.103740000000    -0.634791   
O9       O      0.039640000000     0.963070000000     0.041270000000    -1.49605    
O10      O      0.954970000000     0.038470000000     0.032990000000    -1.45949    
O11      O      0.953800000000     0.950970000000     0.037720000000    -1.07309    
O12      O      0.037330000000     0.044450000000     0.039740000000    -1.6288     
O13      O      0.010380000000     0.884670000000     0.943730000000    -0.576938   
O14      O      0.002770000000     0.106490000000     0.933390000000    -0.598736   
O15      O      0.893720000000     0.933000000000     0.996780000000    -0.562666   
O16      O      0.115740000000     0.948780000000     0.010900000000    -0.631261   
O17      O      0.107390000000     0.062320000000     0.997640000000    -0.654886   
O18      O      0.886660000000     0.051870000000     0.990610000000    -0.559047   
O19      O      0.948030000000     0.989310000000     0.883170000000    -0.565384   
O20      O      0.065830000000     0.999540000000     0.890460000000    -0.578048   
O21      O      0.893340000000     0.988290000000     0.931840000000    -0.575572   
O22      O      0.114450000000     0.006770000000     0.944640000000    -0.613613   
O23      O      0.948310000000     0.883900000000     0.998850000000    -0.575219   
O24      O      0.935750000000     0.106130000000     0.992730000000    -0.612457   
O25      O      0.053190000000     0.111150000000     0.991400000000    -0.629827   
O26      O      0.067470000000     0.893820000000     0.015300000000    -0.556345   
O27      O      0.009050000000     0.933880000000     0.889720000000    -0.564217   
O28      O      0.006990000000     0.052490000000     0.884330000000    -0.562205   
O29      O      0.040820000000     0.038950000000     0.957470000000    -1.47429    
O30      O      0.964790000000     0.953650000000     0.956540000000    -1.36197    
O31      O      0.954400000000     0.035400000000     0.945670000000    -1.05417    
O32      O      0.047950000000     0.951790000000     0.955300000000    -1.06368    
O33      O      0.999790000000     0.391290000000     0.431950000000    -0.625476   
O34      O      0.999010000000     0.611600000000     0.443760000000    -0.56664    
O35      O      0.933900000000     0.503500000000     0.388690000000    -0.597117   
O36      O      0.054120000000     0.510190000000     0.385370000000    -0.622199   
O37      O      0.107160000000     0.509950000000     0.435940000000    -0.627676   
O38      O      0.885370000000     0.491650000000     0.442310000000    -0.581495   
O39      O      0.002020000000     0.563010000000     0.389310000000    -0.608809   
O40      O      0.994710000000     0.445490000000     0.383170000000    -0.631553   
O41      O      0.036250000000     0.541510000000     0.457880000000    -1.48086    
O42      O      0.959060000000     0.458230000000     0.454570000000    -1.46601    
O43      O      0.949520000000     0.544910000000     0.458580000000    -1.08223    
O44      O      0.041260000000     0.460470000000     0.451140000000    -1.63212    
O45      O      0.993040000000     0.605200000000     0.561690000000    -0.572501   
O46      O      0.010890000000     0.384390000000     0.548690000000    -0.605991   
O47      O      0.886140000000     0.552970000000     0.496470000000    -0.558501   
O48      O      0.107600000000     0.561260000000     0.491670000000    -0.621734   
O49      O      0.111730000000     0.444720000000     0.491760000000    -0.640637   
O50      O      0.890690000000     0.434460000000     0.491260000000    -0.565823   
O51      O      0.942130000000     0.489780000000     0.608110000000    -0.568405   
O52      O      0.060090000000     0.490540000000     0.605330000000    -0.576777   
O53      O      0.889190000000     0.491710000000     0.557620000000    -0.57658    
O54      O      0.111010000000     0.491560000000     0.552800000000    -0.608853   
O55      O      0.935840000000     0.606590000000     0.502160000000    -0.573478   
O56      O      0.944560000000     0.385300000000     0.485120000000    -0.618052   
O57      O      0.062090000000     0.390810000000     0.492110000000    -0.628589   
O58      O      0.053900000000     0.610660000000     0.497620000000    -0.576049   
O59      O      0.996440000000     0.550840000000     0.610360000000    -0.562743   
O60      O      0.008660000000     0.433160000000     0.602980000000    -0.564666   
O61      O      0.041560000000     0.457450000000     0.533150000000    -1.4797     
O62      O      0.957410000000     0.534550000000     0.540000000000    -1.3625     
O63      O      0.954780000000     0.451430000000     0.541740000000    -1.06048    
O64      O      0.040340000000     0.543840000000     0.545030000000    -1.06179    
O65      O      0.608360000000     0.989860000000     0.433740000000    -0.630165   
O66      O      0.387050000000     0.004620000000     0.438440000000    -0.563676   
O67      O      0.498420000000     0.939440000000     0.384730000000    -0.616418   
O68      O      0.495020000000     0.056840000000     0.385670000000    -0.628558   
O69      O      0.501240000000     0.108350000000     0.437080000000    -0.633726   
O70      O      0.493970000000     0.888000000000     0.436360000000    -0.580928   
O71      O      0.437710000000     0.003300000000     0.385660000000    -0.610004   
O72      O      0.555060000000     0.994720000000     0.383720000000    -0.629896   
O73      O      0.460190000000     0.040620000000     0.456000000000    -1.46862    
O74      O      0.536950000000     0.956030000000     0.453580000000    -1.46707    
O75      O      0.449160000000     0.953730000000     0.454840000000    -1.05169    
O76      O      0.542660000000     0.038100000000     0.452000000000    -1.63866    
O77      O      0.390600000000     0.003470000000     0.557410000000    -0.560836   
O78      O      0.613050000000     0.997020000000     0.550090000000    -0.611194   
O79      O      0.435220000000     0.890670000000     0.500440000000    -0.570103   
O80      O      0.446650000000     0.111910000000     0.491280000000    -0.61581    
O81      O      0.563850000000     0.105010000000     0.497690000000    -0.633604   
O82      O      0.553280000000     0.884770000000     0.488670000000    -0.570237   
O83      O      0.503160000000     0.939280000000     0.605200000000    -0.571818   
O84      O      0.504280000000     0.056890000000     0.605190000000    -0.578774   
O85      O      0.494290000000     0.887620000000     0.554170000000    -0.567994   
O86      O      0.511540000000     0.108540000000     0.553990000000    -0.608416   
O87      O      0.385780000000     0.944720000000     0.502100000000    -0.567268   
O88      O      0.607750000000     0.933790000000     0.487170000000    -0.607007   
O89      O      0.613200000000     0.050940000000     0.495450000000    -0.625228   
O90      O      0.392090000000     0.063050000000     0.494450000000    -0.569692   
O91      O      0.444270000000     0.999020000000     0.607110000000    -0.571482   
O92      O      0.562860000000     0.998940000000     0.603260000000    -0.572342   
O93      O      0.543670000000     0.036540000000     0.534070000000    -1.46836    
O94      O      0.458600000000     0.960080000000     0.536500000000    -1.37067    
O95      O      0.540910000000     0.949360000000     0.540210000000    -1.07124    
O96      O      0.456330000000     0.042080000000     0.542730000000    -1.05522    
O97      O      0.387190000000     0.443150000000     0.992880000000    -0.631414   
O98      O      0.608360000000     0.436760000000     0.003120000000    -0.568059   
O99      O      0.494240000000     0.388300000000     0.938060000000    -0.622439   
O100     O      0.497040000000     0.388100000000     0.054770000000    -0.626478   
O101     O      0.498100000000     0.439380000000     0.106780000000    -0.632311   
O102     O      0.492440000000     0.440510000000     0.886960000000    -0.572067   
O103     O      0.554950000000     0.386720000000     0.005060000000    -0.613335   
O104     O      0.437900000000     0.390230000000     0.992740000000    -0.63189    
O105     O      0.537640000000     0.457280000000     0.037730000000    -1.47983    
O106     O      0.457930000000     0.459590000000     0.956620000000    -1.4713     
O107     O      0.545690000000     0.455840000000     0.951000000000    -1.06533    
O108     O      0.455160000000     0.457480000000     0.038210000000    -1.64086    
O109     O      0.611290000000     0.555500000000     0.998770000000    -0.56355    
O110     O      0.388610000000     0.559920000000     0.001790000000    -0.611624   
O111     O      0.559170000000     0.498680000000     0.887500000000    -0.571871   
O112     O      0.556360000000     0.488040000000     0.108190000000    -0.609264   
O113     O      0.438600000000     0.501660000000     0.106470000000    -0.628167   
O114     O      0.441230000000     0.498860000000     0.886280000000    -0.573377   
O115     O      0.502960000000     0.609550000000     0.939580000000    -0.56823    
O116     O      0.497580000000     0.608280000000     0.057360000000    -0.577899   
O117     O      0.507370000000     0.558000000000     0.887830000000    -0.566432   
O118     O      0.494970000000     0.556230000000     0.108520000000    -0.625895   
O119     O      0.610660000000     0.498750000000     0.939540000000    -0.568667   
O120     O      0.388460000000     0.497220000000     0.936980000000    -0.611566   
O121     O      0.387470000000     0.503880000000     0.054110000000    -0.625487   
O122     O      0.609040000000     0.491700000000     0.057490000000    -0.572866   
O123     O      0.560340000000     0.608230000000     0.999080000000    -0.565668   
O124     O      0.441570000000     0.610450000000     0.999790000000    -0.572064   
O125     O      0.458610000000     0.539470000000     0.037720000000    -1.47039    
O126     O      0.540570000000     0.538290000000     0.958370000000    -1.37029    
O127     O      0.458580000000     0.546740000000     0.950480000000    -1.05684    
O128     O      0.546260000000     0.543750000000     0.040290000000    -1.05711    
S1       S      0.547520000000     0.098920000000     0.308740000000    -0.0521006  
S2       S      0.434340000000     0.895070000000     0.314780000000    -0.0417595  
S3       S      0.584580000000     0.866510000000     0.636080000000    -0.0370571  
S4       S      0.409030000000     0.374950000000     0.843200000000    -0.0412959  
S5       S      0.894450000000     0.319590000000     0.413760000000    -0.0421558  
S6       S      0.856950000000     0.612470000000     0.407670000000    -0.0133767  
S7       S      0.320390000000     0.111630000000     0.434620000000    -0.0401072  
S8       S      0.315600000000     0.899040000000     0.570100000000    -0.0425267  
S9       S      0.828630000000     0.574130000000     0.366220000000    -0.0421085  
S10      S      0.384130000000     0.441950000000     0.174050000000    -0.0552469  
S11      S      0.175140000000     0.415780000000     0.604870000000    -0.0394361  
S12      S      0.681090000000     0.562710000000     0.888130000000    -0.0438284  
S13      S      0.857690000000     0.874450000000     0.084750000000    -0.0206838  
S14      S      0.602460000000     0.319560000000     0.076300000000    -0.0391032  
S15      S      0.153360000000     0.859840000000     0.104420000000    -0.0437662  
S16      S      0.314990000000     0.396970000000     0.050970000000    -0.0509146  
S17      S      0.683590000000     0.936480000000     0.592620000000    -0.0387464  
S18      S      0.325970000000     0.068250000000     0.606790000000    -0.0383904  
S19      S      0.124540000000     0.907580000000     0.134040000000    -0.0128205  
S20      S      0.826900000000     0.919050000000     0.117010000000    -0.0381693  
S21      S      0.945860000000     0.174040000000     0.879950000000    -0.0406431  
S22      S      0.932290000000     0.593400000000     0.685070000000    -0.0428425  
S23      S      0.954670000000     0.818500000000     0.110570000000    -0.0369634  
S24      S      0.061400000000     0.326330000000     0.377210000000    -0.0558375  


