data_structure

_audit_creation_method RASPA-1.0
_audit_creation_date 2023-5-19
_audit_author_name 'Poobodin Mano'

_cell_length_a    25.899
_cell_length_b    24.9161
_cell_length_c    25.8374
_cell_angle_alpha 90
_cell_angle_beta  90
_cell_angle_gamma 90
_cell_volume      16672.9

_symmetry_cell_setting          triclinic
_symmetry_space_group_name_Hall 'P 1'
_symmetry_space_group_name_H-M  'P 1'
_symmetry_Int_Tables_number     1

_symmetry_equiv_pos_as_xyz 'x,y,z'

loop_
_atom_site_label
_atom_site_type_symbol
_atom_site_fract_x
_atom_site_fract_y
_atom_site_fract_z
_atom_site_charge
C1       C      0.016740000000     0.128950000000     0.180110000000     0.513937   
C2       C      0.976530000000     0.886770000000     0.111400000000     0.516588   
C3       C      0.881450000000     0.044930000000     0.145700000000     0.516254   
C4       C      0.119730000000     0.980950000000     0.148870000000     0.513354   
C5       C      0.996720000000     0.955770000000     0.873140000000     0.506316   
C6       C      0.047530000000     0.197480000000     0.942070000000     0.515635   
C7       C      0.867940000000     0.945090000000     0.985190000000     0.503176   
C8       C      0.111830000000     0.896240000000     0.006100000000     0.511466   
C9       C      0.152740000000     0.142010000000     0.058070000000     0.512164   
C10      C      0.908790000000     0.184630000000     0.068980000000     0.517101   
C11      C      0.899050000000     0.100250000000     0.903070000000     0.506836   
C12      C      0.143710000000     0.060500000000     0.915520000000     0.519918   
C13      C      0.019640000000     0.379260000000     0.443550000000     0.516419   
C14      C      0.029970000000     0.623490000000     0.372510000000     0.518703   
C15      C      0.897090000000     0.486090000000     0.418690000000     0.5201     
C16      C      0.141040000000     0.509100000000     0.399330000000     0.518139   
C17      C      0.021190000000     0.697230000000     0.611590000000     0.503167   
C18      C      0.043880000000     0.451320000000     0.680230000000     0.515466   
C19      C      0.896350000000     0.657330000000     0.497560000000     0.507875   
C20      C      0.143740000000     0.663420000000     0.479040000000     0.517029   
C21      C      0.154320000000     0.422060000000     0.561910000000     0.520757   
C22      C      0.907110000000     0.408310000000     0.560840000000     0.51681    
C23      C      0.908560000000     0.576680000000     0.651210000000     0.509909   
C24      C      0.155990000000     0.570750000000     0.638290000000     0.527423   
C25      C      0.625530000000     0.985100000000     0.405690000000     0.517341   
C26      C      0.381020000000     0.020080000000     0.411530000000     0.513949   
C27      C      0.502980000000     0.879890000000     0.442810000000     0.518022   
C28      C      0.508640000000     0.125790000000     0.373570000000     0.513415   
C29      C      0.397370000000     0.086880000000     0.651220000000     0.51039    
C30      C      0.644340000000     0.073340000000     0.636850000000     0.519669   
C31      C      0.380760000000     0.926830000000     0.569670000000     0.504201   
C32      C      0.396820000000     0.169950000000     0.487180000000     0.5188     
C33      C      0.643840000000     0.151880000000     0.490850000000     0.514225   
C34      C      0.628190000000     0.906300000000     0.556240000000     0.518099   
C35      C      0.506330000000     0.953170000000     0.681620000000     0.504856   
C36      C      0.534390000000     0.198160000000     0.610870000000     0.514486   
C37      C      0.417020000000     0.398680000000     0.995880000000     0.518644   
C38      C      0.379430000000     0.642960000000     0.053040000000     0.516404   
C39      C      0.401780000000     0.474270000000     0.139990000000     0.520542   
C40      C      0.399750000000     0.570170000000     0.910020000000     0.526996   
C41      C      0.626100000000     0.678700000000     0.072720000000     0.502666   
C42      C      0.661910000000     0.438470000000     0.989540000000     0.521428   
C43      C      0.505870000000     0.625060000000     0.183400000000     0.507812   
C44      C      0.497220000000     0.696350000000     0.943200000000     0.515257   
C45      C      0.541930000000     0.454310000000     0.875990000000     0.509677   
C46      C      0.532670000000     0.379830000000     0.113150000000     0.515655   
C47      C      0.644270000000     0.524580000000     0.153590000000     0.509302   
C48      C      0.645120000000     0.589550000000     0.914490000000     0.520033   
C49      C      0.568560000000     0.211380000000     0.176500000000    -0.0423647  
C50      C      0.533870000000     0.280230000000     0.113660000000    -0.00269847 
C51      C      0.511170000000     0.161170000000     0.233090000000     0.00675971 
C52      C      0.525970000000     0.236440000000     0.153130000000     0.00752802 
C53      C      0.503580000000     0.123400000000     0.278000000000    -0.00290723 
C54      C      0.475930000000     0.223470000000     0.169920000000    -0.0410948  
C55      C      0.468590000000     0.186230000000     0.209720000000    -0.0418348  
C56      C      0.561200000000     0.174080000000     0.216260000000    -0.0415122  
C57      C      0.547940000000     0.679710000000     0.344750000000    -0.0417204  
C58      C      0.502750000000     0.621640000000     0.278870000000    -0.00473401 
C59      C      0.499700000000     0.735770000000     0.404560000000     0.00827846 
C60      C      0.501650000000     0.660270000000     0.323640000000     0.00954745 
C61      C      0.498840000000     0.780650000000     0.443500000000    -0.00330714 
C62      C      0.454350000000     0.678620000000     0.343430000000    -0.0423338  
C63      C      0.453380000000     0.716280000000     0.383500000000    -0.0410549  
C64      C      0.546970000000     0.717310000000     0.384840000000    -0.040706   
C65      C      0.536690000000     0.855840000000     0.884290000000    -0.041223   
C66      C      0.482930000000     0.795060000000     0.941000000000    -0.0060003  
C67      C      0.497290000000     0.916330000000     0.821840000000     0.00847325 
C68      C      0.487700000000     0.838970000000     0.900960000000     0.00993929 
C69      C      0.502460000000     0.955340000000     0.777450000000    -0.00451136 
C70      C      0.443500000000     0.861050000000     0.877720000000    -0.0427621  
C71      C      0.448270000000     0.899380000000     0.838400000000    -0.041016   
C72      C      0.541450000000     0.894050000000     0.844920000000    -0.0410617  
C73      C      0.591300000000     0.395780000000     0.716040000000    -0.0414406  
C74      C      0.544950000000     0.455840000000     0.779990000000    -0.00429892 
C75      C      0.544230000000     0.341130000000     0.653790000000     0.00782684 
C76      C      0.544690000000     0.416020000000     0.735820000000     0.00720058 
C77      C      0.543790000000     0.297620000000     0.613010000000    -0.00311723 
C78      C      0.497830000000     0.398330000000     0.714390000000    -0.0420603  
C79      C      0.497600000000     0.361060000000     0.673830000000    -0.0415939  
C80      C      0.591070000000     0.358490000000     0.675510000000    -0.0416014  
C81      C      0.812750000000     0.233320000000     0.473410000000    -0.0443549  
C82      C      0.737620000000     0.168400000000     0.476970000000    -0.00626173 
C83      C      0.844830000000     0.276910000000     0.551200000000     0.0100209  
C84      C      0.773210000000     0.208630000000     0.502060000000     0.0105687  
C85      C      0.883790000000     0.312900000000     0.577180000000    -0.00451686 
C86      C      0.769180000000     0.219240000000     0.555310000000    -0.0397447  
C87      C      0.804570000000     0.253320000000     0.579660000000    -0.0434695  
C88      C      0.848120000000     0.267360000000     0.497760000000    -0.0397572  
C89      C      0.796170000000     0.822370000000     0.579440000000    -0.0452274  
C90      C      0.717130000000     0.881160000000     0.582110000000    -0.00430198 
C91      C      0.826910000000     0.783280000000     0.499120000000     0.0105212  
C92      C      0.754040000000     0.845360000000     0.553350000000     0.0118772  
C93      C      0.864780000000     0.747720000000     0.471410000000    -0.00608675 
C94      C      0.749000000000     0.837630000000     0.499720000000    -0.0382387  
C95      C      0.784930000000     0.806370000000     0.472860000000    -0.0444339  
C96      C      0.832260000000     0.791540000000     0.552550000000    -0.0388075  
C97      C      0.323790000000     0.343010000000     0.569890000000    -0.0436654  
C98      C      0.247300000000     0.404990000000     0.580410000000    -0.00460402 
C99      C      0.343360000000     0.301400000000     0.487170000000     0.0109742  
C100     C      0.280780000000     0.368810000000     0.548030000000     0.00790482 
C101     C      0.374600000000     0.261890000000     0.456290000000    -0.00483359 
C102     C      0.269870000000     0.361400000000     0.495260000000    -0.0358052  
C103     C      0.300650000000     0.327550000000     0.465150000000    -0.0470504  
C104     C      0.354800000000     0.309530000000     0.539680000000    -0.0393707  
C105     C      0.279950000000     0.765380000000     0.582540000000    -0.0458836  
C106     C      0.347440000000     0.837310000000     0.597850000000    -0.00827644 
C107     C      0.262810000000     0.730590000000     0.496240000000     0.0103461  
C108     C      0.317160000000     0.800790000000     0.562460000000     0.012731   
C109     C      0.234500000000     0.691950000000     0.461320000000    -0.00518624 
C110     C      0.327290000000     0.800420000000     0.509040000000    -0.0389085  
C111     C      0.300250000000     0.765770000000     0.476190000000    -0.0446731  
C112     C      0.253160000000     0.730470000000     0.549740000000    -0.0371693  
C113     C      0.801840000000     0.541800000000     0.251560000000    -0.0436783  
C114     C      0.735310000000     0.532690000000     0.180630000000    -0.00427753 
C115     C      0.833350000000     0.463630000000     0.298060000000     0.0105894  
C116     C      0.769370000000     0.508940000000     0.221790000000     0.00904321 
C117     C      0.868150000000     0.439720000000     0.338490000000    -0.00440301 
C118     C      0.769630000000     0.453230000000     0.229900000000    -0.0398331  
C119     C      0.801280000000     0.430730000000     0.267860000000    -0.0443229  
C120     C      0.833850000000     0.519250000000     0.289200000000    -0.0376664  
C121     C      0.261670000000     0.411570000000     0.235030000000    -0.0445905  
C122     C      0.315000000000     0.435160000000     0.156420000000    -0.0043352  
C123     C      0.201270000000     0.475520000000     0.271940000000     0.00561408 
C124     C      0.276920000000     0.449680000000     0.198030000000     0.0106348  
C125     C      0.157300000000     0.487470000000     0.308120000000    -0.00110825 
C126     C      0.255730000000     0.501500000000     0.199670000000    -0.040995   
C127     C      0.218210000000     0.514390000000     0.236470000000    -0.0413663  
C128     C      0.224110000000     0.424450000000     0.271800000000    -0.0405172  
C129     C      0.339190000000     0.559840000000     0.769310000000    -0.0386387  
C130     C      0.374710000000     0.624910000000     0.834530000000    -0.00258589 
C131     C      0.284080000000     0.589920000000     0.699410000000     0.00684393 
C132     C      0.342440000000     0.612650000000     0.787970000000     0.0078873  
C133     C      0.248960000000     0.577560000000     0.655080000000     0.00135563 
C134     C      0.317200000000     0.654170000000     0.761430000000    -0.0441321  
C135     C      0.288130000000     0.642840000000     0.717400000000    -0.0401554  
C136     C      0.309640000000     0.548440000000     0.725600000000    -0.0430636  
C137     C      0.795200000000     0.568560000000     0.839350000000    -0.0408834  
C138     C      0.734540000000     0.618390000000     0.898110000000    -0.00410323 
C139     C      0.847440000000     0.615460000000     0.775920000000     0.00915926 
C140     C      0.771780000000     0.617120000000     0.853650000000     0.00998779 
C141     C      0.890520000000     0.614730000000     0.737100000000    -0.00357118 
C142     C      0.784980000000     0.664550000000     0.827510000000    -0.0421899  
C143     C      0.822530000000     0.663700000000     0.788740000000    -0.0420237  
C144     C      0.832810000000     0.567740000000     0.800700000000    -0.0405762  
C145     C      0.730400000000     0.755380000000     0.003840000000    -0.0529792  
C146     C      0.713450000000     0.716020000000     0.092430000000    -0.0100014  
C147     C      0.794780000000     0.825280000000     0.990600000000     0.0163126  
C148     C      0.740450000000     0.755440000000     0.057270000000     0.0163685  
C149     C      0.825970000000     0.860480000000     0.954730000000    -0.00839404 
C150     C      0.778190000000     0.790460000000     0.077000000000    -0.0462251  
C151     C      0.805280000000     0.824850000000     0.043940000000    -0.0425845  
C152     C      0.757260000000     0.790010000000     0.970820000000    -0.0366792  
C153     C      0.776330000000     0.290010000000     0.972620000000    -0.0363272  
C154     C      0.703020000000     0.354880000000     0.955690000000    -0.00626839 
C155     C      0.792800000000     0.255340000000     0.059060000000     0.016714   
C156     C      0.734020000000     0.319500000000     0.991260000000     0.014682   
C157     C      0.822560000000     0.219290000000     0.095160000000    -0.00810204 
C158     C      0.720630000000     0.315710000000     0.043790000000    -0.0419503  
C159     C      0.749770000000     0.283950000000     0.077390000000    -0.0473208  
C160     C      0.805180000000     0.257780000000     0.006150000000    -0.0510117  
C161     C      0.200500000000     0.738240000000     0.974860000000    -0.0338621  
C162     C      0.123970000000     0.798120000000     0.993710000000     0.0130792  
C163     C      0.244060000000     0.689490000000     0.043660000000     0.00448204 
C164     C      0.164570000000     0.758500000000     0.010570000000    -0.00536395 
C165     C      0.284510000000     0.649770000000     0.060410000000    -0.0022997  
C166     C      0.169150000000     0.744670000000     0.063040000000    -0.0359027  
C167     C      0.208600000000     0.710410000000     0.079480000000    -0.0444539  
C168     C      0.239930000000     0.703910000000     0.991300000000    -0.036275   
C169     C      0.356360000000     0.254510000000     0.056800000000    -0.0364789  
C170     C      0.401930000000     0.300840000000     0.982850000000     0.00923146 
C171     C      0.286440000000     0.191070000000     0.042150000000     0.00449008 
C172     C      0.361330000000     0.262770000000     0.003260000000    -0.00547096 
C173     C      0.248280000000     0.150320000000     0.062370000000    -0.00435744 
C174     C      0.327630000000     0.235970000000     0.969380000000    -0.0347668  
C175     C      0.290410000000     0.200520000000     0.988710000000    -0.0363219  
C176     C      0.319200000000     0.218990000000     0.076120000000    -0.0450398  
C177     C      0.834150000000     0.068800000000     0.762710000000    -0.0409168  
C178     C      0.883220000000     0.136870000000     0.815150000000    -0.00709204 
C179     C      0.774510000000     0.095690000000     0.695010000000     0.00645457 
C180     C      0.843920000000     0.122850000000     0.774490000000     0.0114048  
C181     C      0.737810000000     0.081340000000     0.652110000000    -0.000179814
C182     C      0.818140000000     0.163250000000     0.746740000000    -0.0448294  
C183     C      0.783600000000     0.149730000000     0.707310000000    -0.0395252  
C184     C      0.799420000000     0.055300000000     0.723470000000    -0.0409347  
C185     C      0.304960000000     0.038050000000     0.832140000000    -0.0427891  
C186     C      0.237330000000     0.059160000000     0.899410000000    -0.00154211 
C187     C      0.342970000000     0.108560000000     0.779710000000     0.0102361  
C188     C      0.274530000000     0.076180000000     0.857980000000     0.0080142  
C189     C      0.379710000000     0.125290000000     0.737830000000    -0.00520494 
C190     C      0.278750000000     0.130610000000     0.844670000000    -0.0405512  
C191     C      0.312620000000     0.146710000000     0.805650000000    -0.0442062  
C192     C      0.339080000000     0.054190000000     0.793350000000    -0.0394716  
C193     C      0.210360000000     0.931400000000     0.302520000000    -0.0429366  
C194     C      0.138210000000     0.949040000000     0.238420000000    -0.00567385 
C195     C      0.251210000000     0.004460000000     0.349700000000     0.00828714 
C196     C      0.178650000000     0.968130000000     0.276220000000     0.00751765 
C197     C      0.287770000000     0.023310000000     0.391430000000    -0.00464768 
C198     C      0.184180000000     0.023230000000     0.286270000000    -0.0401024  
C199     C      0.220250000000     0.041270000000     0.322610000000    -0.0444205  
C200     C      0.246290000000     0.949430000000     0.339030000000    -0.0407232  
C201     C      0.770660000000     0.950830000000     0.301080000000    -0.0448285  
C202     C      0.713420000000     0.953800000000     0.380400000000    -0.00629163 
C203     C      0.815420000000     0.030610000000     0.270800000000     0.00810326 
C204     C      0.747170000000     0.980730000000     0.340720000000     0.0101976  
C205     C      0.856910000000     0.055460000000     0.237770000000    -0.00399149 
C206     C      0.756870000000     0.036030000000     0.344200000000    -0.040881   
C207     C      0.790790000000     0.060780000000     0.309570000000    -0.0450807  
C208     C      0.804690000000     0.975560000000     0.266520000000    -0.0384133  
C209     C      0.109370000000     0.357080000000     0.875340000000    -0.0423573  
C210     C      0.067010000000     0.295120000000     0.940210000000    -0.0041199  
C211     C      0.058280000000     0.415510000000     0.820040000000     0.0092425  
C212     C      0.064340000000     0.338960000000     0.900060000000     0.00967446 
C213     C      0.054760000000     0.454180000000     0.775310000000    -0.00437811 
C214     C      0.016270000000     0.359360000000     0.884430000000    -0.0444532  
C215     C      0.013240000000     0.397230000000     0.844610000000    -0.0449463  
C216     C      0.106350000000     0.395000000000     0.835550000000    -0.0417457  
C217     C      0.957390000000     0.857270000000     0.671480000000    -0.0355083  
C218     C      0.009970000000     0.796280000000     0.613380000000    -0.00790275 
C219     C      0.998770000000     0.917140000000     0.733300000000     0.0143863  
C220     C      0.005880000000     0.839830000000     0.653850000000     0.00330737 
C221     C      0.995100000000     0.956970000000     0.777170000000    -0.00215622 
C222     C      0.050740000000     0.861160000000     0.676410000000    -0.0383316  
C223     C      0.047210000000     0.899340000000     0.715950000000    -0.047432   
C224     C      0.953860000000     0.895580000000     0.710960000000    -0.0454281  
C225     C      0.946610000000     0.767610000000     0.255190000000    -0.0506234  
C226     C      0.940290000000     0.841470000000     0.188920000000    -0.00632422 
C227     C      0.029620000000     0.736730000000     0.287140000000     0.00441352 
C228     C      0.971460000000     0.804260000000     0.222290000000     0.0194338  
C229     C      0.060750000000     0.703350000000     0.324180000000    -0.00407518 
C230     C      0.025570000000     0.807680000000     0.222810000000    -0.0449574  
C231     C      0.054410000000     0.774090000000     0.254910000000    -0.0418428  
C232     C      0.975440000000     0.734440000000     0.287710000000    -0.0296164  
C233     C      0.967380000000     0.219750000000     0.382190000000    -0.0383778  
C234     C      0.016310000000     0.279860000000     0.443430000000    -0.00573061 
C235     C      0.012340000000     0.162470000000     0.320920000000     0.00288871 
C236     C      0.014770000000     0.236010000000     0.403430000000     0.00372002 
C237     C      0.011290000000     0.125190000000     0.275180000000    -0.00465549 
C238     C      0.060890000000     0.215000000000     0.383340000000    -0.0422189  
C239     C      0.059680000000     0.178490000000     0.342330000000    -0.0416578  
C240     C      0.966180000000     0.183340000000     0.341090000000    -0.0378891  
Eu1      Eu     0.001490000000     0.016760000000     0.114420000000     3.51631    
Eu2      Eu     0.994730000000     0.951800000000     0.001430000000     2.98574    
Eu3      Eu     0.024910000000     0.133500000000     0.051670000000     3.48055    
Eu4      Eu     0.919340000000     0.060410000000     0.023730000000     3.06693    
Eu5      Eu     0.099710000000     0.024780000000     0.029560000000     3.49753    
Eu6      Eu     0.017910000000     0.068170000000     0.938440000000     3.04875    
Eu7      Eu     0.020030000000     0.511660000000     0.439050000000     3.50221    
Eu8      Eu     0.021490000000     0.629990000000     0.500550000000     3.02836    
Eu9      Eu     0.028800000000     0.446810000000     0.553580000000     3.49401    
Eu10     Eu     0.933400000000     0.535280000000     0.532070000000     3.07088    
Eu11     Eu     0.116690000000     0.541610000000     0.521310000000     3.58895    
Eu12     Eu     0.030260000000     0.565050000000     0.614880000000     3.05479    
Eu13     Eu     0.505160000000     0.011870000000     0.439500000000     3.49656    
Eu14     Eu     0.420270000000     0.047120000000     0.530940000000     3.05517    
Eu15     Eu     0.602770000000     0.031050000000     0.523930000000     3.53458    
Eu16     Eu     0.506000000000     0.947510000000     0.553450000000     3.03354    
Eu17     Eu     0.517620000000     0.131010000000     0.501510000000     3.48309    
Eu18     Eu     0.518070000000     0.066460000000     0.615320000000     3.07145    
Eu19     Eu     0.431580000000     0.526300000000     0.026470000000     3.52012    
Eu20     Eu     0.507810000000     0.630760000000     0.055200000000     3.02233    
Eu21     Eu     0.535830000000     0.448640000000     0.004080000000     3.42437    
Eu22     Eu     0.522140000000     0.512320000000     0.117780000000     3.09034    
Eu23     Eu     0.522820000000     0.567040000000     0.941680000000     3.55946    
Eu24     Eu     0.612680000000     0.552970000000     0.033040000000     3.04415    
H1       H      0.947130000000     0.982760000000     0.094100000000    -0.187386   
H2       H      0.090320000000     0.081580000000     0.122240000000     0.409722   
H3       H      0.980920000000     0.149440000000     0.003420000000    -0.178797   
H4       H      0.089890000000     0.992470000000     0.971120000000    -0.180952   
H5       H      0.971110000000     0.559550000000     0.433040000000    -0.163313   
H6       H      0.100000000000     0.443050000000     0.471950000000     0.41044    
H7       H      0.983650000000     0.465590000000     0.599580000000    -0.179546   
H8       H      0.110650000000     0.601900000000     0.553470000000    -0.201172   
H9       H      0.455680000000     0.970860000000     0.460890000000    -0.180937   
H10      H      0.587050000000     0.084950000000     0.430330000000     0.409614   
H11      H      0.596320000000     0.999690000000     0.582820000000    -0.19725    
H12      H      0.472910000000     0.142570000000     0.550140000000    -0.174305   
H13      H      0.430480000000     0.559330000000     0.085420000000    -0.181004   
H14      H      0.457690000000     0.477270000000     0.932950000000     0.407061   
H15      H      0.581850000000     0.447990000000     0.052700000000    -0.171551   
H16      H      0.561790000000     0.618650000000     0.962970000000    -0.197619   
H17      H      0.510450000000     0.193850000000     0.327640000000     0.10318    
H18      H      0.571380000000     0.275220000000     0.093250000000     0.0334743  
H19      H      0.502730000000     0.278930000000     0.084010000000     0.0376127  
H20      H      0.594560000000     0.155820000000     0.234410000000     0.0350751  
H21      H      0.607500000000     0.221530000000     0.164730000000     0.0363328  
H22      H      0.465150000000     0.103610000000     0.275670000000     0.0378552  
H23      H      0.442660000000     0.243110000000     0.153040000000     0.03698    
H24      H      0.429730000000     0.177500000000     0.222730000000     0.0370746  
H25      H      0.532600000000     0.090500000000     0.276320000000     0.0336804  
H26      H      0.532280000000     0.334310000000     0.179790000000     0.105628   
H27      H      0.501340000000     0.833730000000     0.376530000000     0.106661   
H28      H      0.538190000000     0.596410000000     0.280390000000     0.0403859  
H29      H      0.468990000000     0.594090000000     0.280680000000     0.0381327  
H30      H      0.583080000000     0.732850000000     0.399780000000     0.0390539  
H31      H      0.584800000000     0.666460000000     0.329580000000     0.0389998  
H32      H      0.463220000000     0.778740000000     0.467530000000     0.0359674  
H33      H      0.418240000000     0.664490000000     0.327230000000     0.0383998  
H34      H      0.416530000000     0.730990000000     0.397420000000     0.0368789  
H35      H      0.531860000000     0.776850000000     0.470800000000     0.0389542  
H36      H      0.495900000000     0.692310000000     0.229350000000     0.105      
H37      H      0.498380000000     0.885320000000     0.727060000000     0.104942   
H38      H      0.512920000000     0.800230000000     0.971430000000     0.0408564  
H39      H      0.444570000000     0.796440000000     0.960290000000     0.0377259  
H40      H      0.579610000000     0.905870000000     0.832100000000     0.0388541  
H41      H      0.571250000000     0.838700000000     0.901180000000     0.0400372  
H42      H      0.470250000000     0.984900000000     0.778200000000     0.0372397  
H43      H      0.405350000000     0.848010000000     0.889420000000     0.0377995  
H44      H      0.413740000000     0.915420000000     0.820490000000     0.0372795  
H45      H      0.538580000000     0.979180000000     0.781300000000     0.0385084  
H46      H      0.488090000000     0.739980000000     0.875960000000     0.10563    
H47      H      0.544380000000     0.242060000000     0.677780000000     0.105691   
H48      H      0.578990000000     0.482850000000     0.776780000000     0.0385528  
H49      H      0.509820000000     0.481540000000     0.778650000000     0.032974   
H50      H      0.627430000000     0.342710000000     0.661450000000     0.0383727  
H51      H      0.627850000000     0.408510000000     0.732320000000     0.0387808  
H52      H      0.510340000000     0.302900000000     0.586470000000     0.0356013  
H53      H      0.461400000000     0.413030000000     0.729350000000     0.0341755  
H54      H      0.461000000000     0.347310000000     0.658440000000     0.036632   
H55      H      0.578980000000     0.300090000000     0.588460000000     0.0370921  
H56      H      0.553290000000     0.386650000000     0.830910000000     0.102691   
H57      H      0.832060000000     0.380480000000     0.567280000000     0.105291   
H58      H      0.747540000000     0.163080000000     0.435410000000     0.0249351  
H59      H      0.743480000000     0.129080000000     0.496410000000     0.0429699  
H60      H      0.878510000000     0.285760000000     0.475050000000     0.0401219  
H61      H      0.816770000000     0.225650000000     0.432330000000     0.0347043  
H62      H      0.884050000000     0.305590000000     0.619620000000     0.0315975  
H63      H      0.739000000000     0.200600000000     0.578100000000     0.0424908  
H64      H      0.800920000000     0.260690000000     0.620820000000     0.0362015  
H65      H      0.923110000000     0.302850000000     0.562800000000     0.0438635  
H66      H      0.675060000000     0.225890000000     0.471560000000     0.10186    
H67      H      0.819250000000     0.678040000000     0.491740000000     0.105267   
H68      H      0.722600000000     0.876440000000     0.624560000000     0.0286132  
H69      H      0.726980000000     0.923390000000     0.572500000000     0.0435115  
H70      H      0.864320000000     0.773880000000     0.573450000000     0.0404017  
H71      H      0.801400000000     0.828540000000     0.620610000000     0.0356175  
H72      H      0.858960000000     0.750140000000     0.428850000000     0.031442   
H73      H      0.717400000000     0.855920000000     0.478650000000     0.0448293  
H74      H      0.780000000000     0.800320000000     0.431640000000     0.0361249  
H75      H      0.904650000000     0.762000000000     0.479530000000     0.0427749  
H76      H      0.649770000000     0.830010000000     0.579850000000     0.103297   
H77      H      0.322360000000     0.197100000000     0.474740000000     0.103796   
H78      H      0.259110000000     0.402920000000     0.621730000000     0.0290377  
H79      H      0.253280000000     0.446960000000     0.567200000000     0.0438593  
H80      H      0.387350000000     0.289310000000     0.557410000000     0.0403609  
H81      H      0.333250000000     0.348480000000     0.610390000000     0.0350968  
H82      H      0.365560000000     0.265810000000     0.414400000000     0.0308272  
H83      H      0.237210000000     0.381410000000     0.477520000000     0.0322582  
H84      H      0.290870000000     0.321460000000     0.424810000000     0.0351964  
H85      H      0.416350000000     0.270950000000     0.461160000000     0.0426586  
H86      H      0.183410000000     0.350020000000     0.589460000000     0.102278   
H87      H      0.165090000000     0.739390000000     0.454310000000     0.102609   
H88      H      0.333600000000     0.833110000000     0.638380000000     0.0306426  
H89      H      0.388590000000     0.824750000000     0.596850000000     0.0451555  
H90      H      0.224990000000     0.703170000000     0.566120000000     0.0425788  
H91      H      0.271890000000     0.764370000000     0.623670000000     0.0363719  
H92      H      0.246720000000     0.698100000000     0.420500000000     0.0295772  
H93      H      0.356350000000     0.826820000000     0.492830000000     0.0445527  
H94      H      0.308880000000     0.766190000000     0.435170000000     0.0357192  
H95      H      0.245280000000     0.650290000000     0.472190000000     0.0438093  
H96      H      0.303440000000     0.908860000000     0.581130000000     0.103571   
H97      H      0.821170000000     0.465690000000     0.402910000000     0.105144   
H98      H      0.740320000000     0.576940000000     0.177780000000     0.0345457  
H99      H      0.746710000000     0.515320000000     0.142640000000     0.0414312  
H100     H      0.858930000000     0.545190000000     0.311580000000     0.0424614  
H101     H      0.802620000000     0.584810000000     0.245550000000     0.0367875  
H102     H      0.860060000000     0.396130000000     0.342880000000     0.0309457  
H103     H      0.745220000000     0.427230000000     0.206850000000     0.0403198  
H104     H      0.800770000000     0.387660000000     0.273540000000     0.0359604  
H105     H      0.908810000000     0.443740000000     0.325340000000     0.0458227  
H106     H      0.669340000000     0.509900000000     0.228350000000     0.104558   
H107     H      0.214730000000     0.506110000000     0.367570000000     0.102615   
H108     H      0.314910000000     0.391010000000     0.150140000000     0.0310356  
H109     H      0.303520000000     0.454710000000     0.119480000000     0.0437046  
H110     H      0.211860000000     0.394170000000     0.299280000000     0.0340484  
H111     H      0.278110000000     0.371590000000     0.234830000000     0.0356138  
H112     H      0.133310000000     0.521000000000     0.292890000000     0.0383348  
H113     H      0.267560000000     0.531630000000     0.171850000000     0.0392316  
H114     H      0.201440000000     0.554220000000     0.236370000000     0.0367816  
H115     H      0.131080000000     0.452120000000     0.310000000000     0.0338847  
H116     H      0.379160000000     0.440750000000     0.209690000000     0.104416   
H117     H      0.185870000000     0.589420000000     0.710240000000     0.10526    
H118     H      0.415840000000     0.622290000000     0.822540000000     0.0456797  
H119     H      0.367890000000     0.666670000000     0.848110000000     0.0322082  
H120     H      0.306460000000     0.507280000000     0.712450000000     0.0356612  
H121     H      0.359180000000     0.527430000000     0.788810000000     0.0356807  
H122     H      0.255310000000     0.607040000000     0.623340000000     0.0347779  
H123     H      0.319840000000     0.695280000000     0.774810000000     0.0358249  
H124     H      0.268120000000     0.675160000000     0.697760000000     0.0369643  
H125     H      0.257510000000     0.537330000000     0.638390000000     0.0374784  
H126     H      0.324010000000     0.581570000000     0.886670000000     0.102859   
H127     H      0.834410000000     0.588190000000     0.679490000000     0.105374   
H128     H      0.747250000000     0.589340000000     0.928270000000     0.0443549  
H129     H      0.734000000000     0.658880000000     0.916230000000     0.0335345  
H130     H      0.851350000000     0.530110000000     0.790860000000     0.0402652  
H131     H      0.785140000000     0.531530000000     0.858880000000     0.0403438  
H132     H      0.905240000000     0.655980000000     0.729760000000     0.0365777  
H133     H      0.766980000000     0.702310000000     0.837830000000     0.0363766  
H134     H      0.832960000000     0.700840000000     0.769620000000     0.036981   
H135     H      0.923620000000     0.591740000000     0.753360000000     0.0422016  
H136     H      0.671710000000     0.612860000000     0.842220000000     0.105281   
H137     H      0.789170000000     0.935550000000     0.974210000000     0.104623   
H138     H      0.727620000000     0.675080000000     0.083040000000     0.0447786  
H139     H      0.723580000000     0.724300000000     0.133470000000     0.0298977  
H140     H      0.749160000000     0.788750000000     0.929700000000     0.0341105  
H141     H      0.702160000000     0.728060000000     0.987630000000     0.052039   
H142     H      0.865800000000     0.844160000000     0.952110000000     0.0464742  
H143     H      0.787310000000     0.790660000000     0.117910000000     0.0361282  
H144     H      0.834820000000     0.850780000000     0.059960000000     0.0458116  
H145     H      0.809090000000     0.859230000000     0.915190000000     0.0303412  
H146     H      0.639990000000     0.756720000000     0.096950000000     0.102682   
H147     H      0.895910000000     0.260180000000     0.100110000000     0.103445   
H148     H      0.719590000000     0.354180000000     0.916000000000     0.0305897  
H149     H      0.662980000000     0.339030000000     0.953610000000     0.0452928  
H150     H      0.837200000000     0.234840000000     0.990710000000     0.0530579  
H151     H      0.787000000000     0.291770000000     0.932120000000     0.0354993  
H152     H      0.814130000000     0.230730000000     0.135890000000     0.029052   
H153     H      0.687680000000     0.337540000000     0.058800000000     0.0420654  
H154     H      0.738570000000     0.281610000000     0.117720000000     0.0361137  
H155     H      0.809060000000     0.177330000000     0.089720000000     0.0453025  
H156     H      0.740410000000     0.428910000000     0.977320000000     0.105027   
H157     H      0.340830000000     0.713980000000     0.069720000000     0.102909   
H158     H      0.114990000000     0.793270000000     0.951890000000     0.0318106  
H159     H      0.087660000000     0.791630000000     0.015890000000     0.0336099  
H160     H      0.266980000000     0.688170000000     0.963130000000     0.0415731  
H161     H      0.198200000000     0.749230000000     0.934370000000     0.0360461  
H162     H      0.276290000000     0.634930000000     0.100160000000     0.0301619  
H163     H      0.142360000000     0.760710000000     0.091290000000     0.0378006  
H164     H      0.211140000000     0.699900000000     0.120080000000     0.036412   
H165     H      0.282180000000     0.614140000000     0.034590000000     0.0425848  
H166     H      0.182690000000     0.858700000000     0.007010000000     0.10593    
H167     H      0.191280000000     0.213340000000     0.073100000000     0.100946   
H168     H      0.438760000000     0.294430000000     0.004140000000     0.0349786  
H169     H      0.409370000000     0.293340000000     0.941100000000     0.0266091  
H170     H      0.316520000000     0.212770000000     0.117520000000     0.0352142  
H171     H      0.381440000000     0.275460000000     0.083580000000     0.0370346  
H172     H      0.249850000000     0.113890000000     0.037540000000     0.0415788  
H173     H      0.330270000000     0.242250000000     0.927980000000     0.0341083  
H174     H      0.265100000000     0.179870000000     0.961950000000     0.0398123  
H175     H      0.259490000000     0.137160000000     0.101920000000     0.0272835  
H176     H      0.344810000000     0.364070000000     0.989410000000     0.104904   
H177     H      0.675490000000     0.097520000000     0.706960000000     0.105208   
H178     H      0.920500000000     0.117840000000     0.804250000000     0.045224   
H179     H      0.889570000000     0.180970000000     0.816850000000     0.03311    
H180     H      0.792480000000     0.013350000000     0.714890000000     0.0363999  
H181     H      0.853780000000     0.037120000000     0.783660000000     0.0414318  
H182     H      0.744070000000     0.108460000000     0.618490000000     0.0377228  
H183     H      0.825110000000     0.205210000000     0.755190000000     0.0364961  
H184     H      0.764270000000     0.181370000000     0.686060000000     0.0368132  
H185     H      0.745600000000     0.040070000000     0.637580000000     0.0356307  
H186     H      0.827000000000     0.122990000000     0.875950000000     0.104172   
H187     H      0.323950000000     0.103670000000     0.678660000000     0.104394   
H188     H      0.242560000000     0.016200000000     0.909920000000     0.0367816  
H189     H      0.244710000000     0.083150000000     0.934970000000     0.0402308  
H190     H      0.362410000000     0.024290000000     0.773810000000     0.0407399  
H191     H      0.302300000000     0.995860000000     0.841900000000     0.0373972  
H192     H      0.381180000000     0.169760000000     0.734560000000     0.0319407  
H193     H      0.255500000000     0.160510000000     0.864250000000     0.0380262  
H194     H      0.315130000000     0.188870000000     0.795770000000     0.0356615  
H195     H      0.419160000000     0.111780000000     0.748710000000     0.0441322  
H196     H      0.176090000000     0.080410000000     0.844870000000     0.105044   
H197     H      0.351070000000     0.005510000000     0.338420000000     0.104576   
H198     H      0.133540000000     0.904750000000     0.240790000000     0.0311291  
H199     H      0.100590000000     0.967690000000     0.248780000000     0.0396105  
H200     H      0.269790000000     0.920420000000     0.359540000000     0.0396517  
H201     H      0.206880000000     0.888720000000     0.295320000000     0.0358449  
H202     H      0.281750000000     0.066560000000     0.400220000000     0.0366079  
H203     H      0.160120000000     0.052190000000     0.266340000000     0.0317391  
H204     H      0.223360000000     0.083910000000     0.330170000000     0.0352749  
H205     H      0.279140000000     0.001330000000     0.427910000000     0.0405566  
H206     H      0.192080000000     0.958190000000     0.174960000000     0.103017   
H207     H      0.807010000000     0.061570000000     0.170650000000     0.102258   
H208     H      0.718690000000     0.909540000000     0.378640000000     0.0297489  
H209     H      0.725140000000     0.967380000000     0.419650000000     0.0435183  
H210     H      0.823740000000     0.951500000000     0.237260000000     0.0400096  
H211     H      0.763610000000     0.908130000000     0.297610000000     0.0359515  
H212     H      0.861700000000     0.098640000000     0.247560000000     0.0306096  
H213     H      0.739040000000     0.059750000000     0.374470000000     0.0341285  
H214     H      0.798830000000     0.103210000000     0.313950000000     0.0338635  
H215     H      0.894150000000     0.035580000000     0.247220000000     0.0447646  
H216     H      0.644600000000     0.955200000000     0.333370000000     0.102775   
H217     H      0.054050000000     0.383560000000     0.725430000000     0.105202   
H218     H      0.105240000000     0.295080000000     0.959810000000     0.0372306  
H219     H      0.036930000000     0.301510000000     0.970350000000     0.0388457  
H220     H      0.141440000000     0.407910000000     0.816430000000     0.0381001  
H221     H      0.146750000000     0.341160000000     0.886230000000     0.0375973  
H222     H      0.020860000000     0.481170000000     0.780110000000     0.0372394  
H223     H      0.981020000000     0.345200000000     0.902420000000     0.0426291  
H224     H      0.975730000000     0.411860000000     0.832580000000     0.0415735  
H225     H      0.089240000000     0.480810000000     0.774520000000     0.0381088  
H226     H      0.062450000000     0.239940000000     0.875180000000     0.105284   
H227     H      0.983990000000     0.888320000000     0.828160000000     0.105189   
H228     H      0.974470000000     0.794620000000     0.589160000000     0.0396358  
H229     H      0.043090000000     0.804440000000     0.587120000000     0.0378999  
H230     H      0.916120000000     0.908150000000     0.724360000000     0.0376658  
H231     H      0.922290000000     0.840760000000     0.655140000000     0.0352605  
H232     H      0.028960000000     0.984470000000     0.776680000000     0.0377214  
H233     H      0.088480000000     0.847640000000     0.663910000000     0.038243   
H234     H      0.082300000000     0.914800000000     0.733220000000     0.0404482  
H235     H      0.960500000000     0.982910000000     0.772160000000     0.0351025  
H236     H      0.020280000000     0.742160000000     0.678650000000     0.104558   
H237     H      0.041400000000     0.625420000000     0.293160000000     0.102816   
H238     H      0.899270000000     0.828300000000     0.187920000000     0.0270308  
H239     H      0.941200000000     0.882070000000     0.206700000000     0.0429779  
H240     H      0.955380000000     0.707260000000     0.313530000000     0.0418609  
H241     H      0.904870000000     0.765130000000     0.256270000000     0.0368382  
H242     H      0.101390000000     0.701030000000     0.310450000000     0.0294615  
H243     H      0.045470000000     0.836630000000     0.198710000000     0.0469128  
H244     H      0.096100000000     0.777730000000     0.255010000000     0.0343612  
H245     H      0.061160000000     0.723780000000     0.362390000000     0.0453182  
H246     H      0.955070000000     0.806730000000     0.113950000000     0.102935   
H247     H      0.024960000000     0.195970000000     0.226990000000     0.101438   
H248     H      0.982020000000     0.277430000000     0.469270000000     0.0393035  
H249     H      0.051370000000     0.276270000000     0.468090000000     0.032313   
H250     H      0.929310000000     0.171940000000     0.324600000000     0.0355263  
H251     H      0.931460000000     0.236310000000     0.396560000000     0.0360434  
H252     H      0.042190000000     0.094410000000     0.279050000000     0.030964   
H253     H      0.097840000000     0.227860000000     0.398580000000     0.0345546  
H254     H      0.095680000000     0.163290000000     0.326800000000     0.0342233  
H255     H      0.974250000000     0.102560000000     0.274060000000     0.0415616  
H256     H      0.013150000000     0.333860000000     0.377240000000     0.102849   
N1       N      0.507870000000     0.151930000000     0.327480000000    -0.238093   
N2       N      0.533280000000     0.332670000000     0.139310000000    -0.23552    
N3       N      0.501310000000     0.832580000000     0.417040000000    -0.235778   
N4       N      0.501330000000     0.650680000000     0.229490000000    -0.232904   
N5       N      0.502510000000     0.927110000000     0.727620000000    -0.232354   
N6       N      0.489250000000     0.742460000000     0.916400000000    -0.234193   
N7       N      0.541380000000     0.244610000000     0.637430000000    -0.234508   
N8       N      0.547250000000     0.428180000000     0.830100000000    -0.237322   
N9       N      0.871040000000     0.369430000000     0.567940000000    -0.234026   
N10      N      0.683570000000     0.185910000000     0.480490000000    -0.237576   
N11      N      0.857160000000     0.692000000000     0.487830000000    -0.232937   
N12      N      0.663170000000     0.868190000000     0.569740000000    -0.234641   
N13      N      0.361500000000     0.207360000000     0.472960000000    -0.234639   
N14      N      0.192990000000     0.388540000000     0.576570000000    -0.238108   
N15      N      0.178630000000     0.701230000000     0.464370000000    -0.234237   
N16      N      0.341030000000     0.893530000000     0.582040000000    -0.23129    
N17      N      0.858960000000     0.465630000000     0.388600000000    -0.235075   
N18      N      0.680810000000     0.520780000000     0.190950000000    -0.23378    
N19      N      0.175270000000     0.501140000000     0.360310000000    -0.239351   
N20      N      0.367060000000     0.451110000000     0.172360000000    -0.234961   
N21      N      0.194990000000     0.579660000000     0.671910000000    -0.238422   
N22      N      0.362780000000     0.587910000000     0.877120000000    -0.239516   
N23      N      0.873830000000     0.591120000000     0.687910000000    -0.233584   
N24      N      0.682100000000     0.605530000000     0.880720000000    -0.235664   
N25      N      0.825090000000     0.916460000000     0.972440000000    -0.230692   
N26      N      0.657150000000     0.720200000000     0.086860000000    -0.231247   
N27      N      0.878380000000     0.224890000000     0.087010000000    -0.23469    
N28      N      0.704310000000     0.410250000000     0.974860000000    -0.23446    
N29      N      0.336490000000     0.673480000000     0.059990000000    -0.234797   
N30      N      0.142940000000     0.852690000000     0.002400000000    -0.238614   
N31      N      0.195790000000     0.172560000000     0.064570000000    -0.237112   
N32      N      0.384560000000     0.356460000000     0.989000000000    -0.239111   
N33      N      0.683960000000     0.085180000000     0.669180000000    -0.236166   
N34      N      0.866000000000     0.118520000000     0.866290000000    -0.232465   
N35      N      0.363310000000     0.103270000000     0.687800000000    -0.233333   
N36      N      0.183870000000     0.067880000000     0.882750000000    -0.23598    
N37      N      0.341940000000     0.015040000000     0.376790000000    -0.234188   
N38      N      0.153320000000     0.963030000000     0.185390000000    -0.237875   
N39      N      0.844450000000     0.051630000000     0.182430000000    -0.234254   
N40      N      0.659030000000     0.965800000000     0.369780000000    -0.237476   
N41      N      0.050840000000     0.425430000000     0.725920000000    -0.234801   
N42      N      0.059240000000     0.242810000000     0.915490000000    -0.234608   
N43      N      0.991790000000     0.929530000000     0.827310000000    -0.232059   
N44      N      0.017880000000     0.744050000000     0.638230000000    -0.232397   
N45      N      0.040640000000     0.648370000000     0.327050000000    -0.235784   
N46      N      0.960220000000     0.841660000000     0.135810000000    -0.234795   
N47      N      0.018270000000     0.154550000000     0.226410000000    -0.23854    
N48      N      0.016480000000     0.332170000000     0.417610000000    -0.239409   
O1       O      0.024360000000     0.158620000000     0.137070000000    -0.625907   
O2       O      0.980170000000     0.884660000000     0.059510000000    -0.573856   
O3       O      0.929000000000     0.030630000000     0.161510000000    -0.613796   
O4       O      0.069570000000     0.985920000000     0.161820000000    -0.637107   
O5       O      0.139540000000     0.993180000000     0.102160000000    -0.63185    
O6       O      0.868250000000     0.054490000000     0.096050000000    -0.569495   
O7       O      0.984720000000     0.931160000000     0.140120000000    -0.619067   
O8       O      0.008240000000     0.075700000000     0.180710000000    -0.636536   
O9       O      0.047430000000     0.968750000000     0.063910000000    -1.46681    
O10      O      0.965240000000     0.088120000000     0.087480000000    -1.48008    
O11      O      0.937810000000     0.981890000000     0.059190000000    -1.05373    
O12      O      0.066440000000     0.070200000000     0.094380000000    -1.6397     
O13      O      0.991620000000     0.926310000000     0.916600000000    -0.561888   
O14      O      0.044820000000     0.199950000000     0.994180000000    -0.608796   
O15      O      0.860740000000     0.996510000000     0.999780000000    -0.568127   
O16      O      0.135040000000     0.942760000000     0.018250000000    -0.625897   
O17      O      0.159090000000     0.089480000000     0.047580000000    -0.631004   
O18      O      0.885580000000     0.140200000000     0.050460000000    -0.577833   
O19      O      0.949280000000     0.095430000000     0.890360000000    -0.571543   
O20      O      0.096010000000     0.070900000000     0.897350000000    -0.574376   
O21      O      0.879190000000     0.089480000000     0.950160000000    -0.573182   
O22      O      0.154410000000     0.043210000000     0.963680000000    -0.616771   
O23      O      0.914160000000     0.920270000000     0.983020000000    -0.557367   
O24      O      0.960270000000     0.191820000000     0.071960000000    -0.614282   
O25      O      0.106640000000     0.166770000000     0.062320000000    -0.629176   
O26      O      0.060690000000     0.890250000000     0.997520000000    -0.556822   
O27      O      0.006700000000     0.008890000000     0.872030000000    -0.571881   
O28      O      0.038760000000     0.153120000000     0.913720000000    -0.578202   
O29      O      0.072600000000     0.096910000000     0.994440000000    -1.47081    
O30      O      0.956240000000     0.016620000000     0.962570000000    -1.3614     
O31      O      0.966100000000     0.122310000000     0.983250000000    -1.05276    
O32      O      0.057120000000     0.990920000000     0.956080000000    -1.05077    
O33      O      0.024090000000     0.377870000000     0.495530000000    -0.630411   
O34      O      0.027310000000     0.653760000000     0.415630000000    -0.573923   
O35      O      0.945660000000     0.485540000000     0.400170000000    -0.619867   
O36      O      0.090710000000     0.502100000000     0.388390000000    -0.637195   
O37      O      0.159830000000     0.523170000000     0.446040000000    -0.640629   
O38      O      0.883410000000     0.504760000000     0.465610000000    -0.577407   
O39      O      0.025250000000     0.569720000000     0.371400000000    -0.618523   
O40      O      0.018170000000     0.424160000000     0.414740000000    -0.635668   
O41      O      0.071260000000     0.574600000000     0.460890000000    -1.49258    
O42      O      0.975040000000     0.471040000000     0.495800000000    -1.48106    
O43      O      0.961700000000     0.579250000000     0.462500000000    -1.06938    
O44      O      0.077920000000     0.470980000000     0.487890000000    -1.64551    
O45      O      0.018680000000     0.698740000000     0.559400000000    -0.563879   
O46      O      0.041270000000     0.420890000000     0.637210000000    -0.617122   
O47      O      0.883050000000     0.607570000000     0.512950000000    -0.575141   
O48      O      0.161200000000     0.614100000000     0.491470000000    -0.621394   
O49      O      0.167230000000     0.471250000000     0.544750000000    -0.64416    
O50      O      0.889620000000     0.458340000000     0.551710000000    -0.574017   
O51      O      0.958960000000     0.580880000000     0.663280000000    -0.573903   
O52      O      0.107450000000     0.576430000000     0.656140000000    -0.577289   
O53      O      0.890010000000     0.559530000000     0.605380000000    -0.572887   
O54      O      0.168710000000     0.557680000000     0.589460000000    -0.634807   
O55      O      0.945200000000     0.674370000000     0.490050000000    -0.57035    
O56      O      0.957390000000     0.394450000000     0.563280000000    -0.611436   
O57      O      0.105590000000     0.403700000000     0.566590000000    -0.631958   
O58      O      0.093800000000     0.678510000000     0.480790000000    -0.5693     
O59      O      0.026860000000     0.652350000000     0.639970000000    -0.573563   
O60      O      0.039700000000     0.505230000000     0.681090000000    -0.575777   
O61      O      0.080890000000     0.503800000000     0.586110000000    -1.4873     
O62      O      0.975450000000     0.601630000000     0.563740000000    -1.37287    
O63      O      0.971950000000     0.501020000000     0.601600000000    -1.05708    
O64      O      0.078490000000     0.615490000000     0.563170000000    -1.05081    
O65      O      0.644230000000     0.999330000000     0.452370000000    -0.635928   
O66      O      0.368740000000     0.032920000000     0.460680000000    -0.573803   
O67      O      0.504360000000     0.924750000000     0.413850000000    -0.618356   
O68      O      0.504850000000     0.071860000000     0.372980000000    -0.631467   
O69      O      0.513850000000     0.155990000000     0.416530000000    -0.629751   
O70      O      0.502610000000     0.878810000000     0.494990000000    -0.573061   
O71      O      0.429410000000     0.011140000000     0.394370000000    -0.612669   
O72      O      0.575510000000     0.987950000000     0.391850000000    -0.632903   
O73      O      0.462140000000     0.079390000000     0.466080000000    -1.47147    
O74      O      0.555950000000     0.969730000000     0.490540000000    -1.47355    
O75      O      0.446230000000     0.970420000000     0.495800000000    -1.05983    
O76      O      0.564700000000     0.071900000000     0.458760000000    -1.64016    
O77      O      0.378170000000     0.072840000000     0.604640000000    -0.571248   
O78      O      0.656150000000     0.057300000000     0.588530000000    -0.619983   
O79      O      0.429150000000     0.906990000000     0.571090000000    -0.568067   
O80      O      0.447330000000     0.182100000000     0.482560000000    -0.615627   
O81      O      0.595610000000     0.172110000000     0.488460000000    -0.628573   
O82      O      0.577750000000     0.894230000000     0.561980000000    -0.570388   
O83      O      0.512170000000     0.006970000000     0.682280000000    -0.569725   
O84      O      0.530290000000     0.153260000000     0.639450000000    -0.579976   
O85      O      0.503990000000     0.922880000000     0.638470000000    -0.567794   
O86      O      0.531330000000     0.199940000000     0.558690000000    -0.60602    
O87      O      0.368490000000     0.977490000000     0.556000000000    -0.568134   
O88      O      0.646310000000     0.954370000000     0.540960000000    -0.624952   
O89      O      0.655310000000     0.100530000000     0.502200000000    -0.639835   
O90      O      0.378290000000     0.122990000000     0.505070000000    -0.575807   
O91      O      0.447850000000     0.087460000000     0.663490000000    -0.578438   
O92      O      0.596000000000     0.078150000000     0.655590000000    -0.574325   
O93      O      0.569220000000     0.100510000000     0.558620000000    -1.47971    
O94      O      0.461700000000     0.008200000000     0.592190000000    -1.3716     
O95      O      0.564240000000     0.993830000000     0.598170000000    -1.05329    
O96      O      0.460900000000     0.114120000000     0.570470000000    -1.06482    
O97      O      0.468410000000     0.390190000000     0.992730000000    -0.613327   
O98      O      0.425910000000     0.666300000000     0.060500000000    -0.567894   
O99      O      0.386270000000     0.487450000000     0.091870000000    -0.614593   
O100     O      0.384160000000     0.548350000000     0.955060000000    -0.630751   
O101     O      0.449170000000     0.578310000000     0.896380000000    -0.647745   
O102     O      0.449770000000     0.481920000000     0.158520000000    -0.580139   
O103     O      0.372440000000     0.591160000000     0.040300000000    -0.630031   
O104     O      0.394850000000     0.446330000000     0.005950000000    -0.646791   
O105     O      0.464630000000     0.596370000000     0.992730000000    -1.48219    
O106     O      0.479540000000     0.467070000000     0.061370000000    -1.48006    
O107     O      0.461020000000     0.572170000000     0.100190000000    -1.06079    
O108     O      0.477140000000     0.495060000000     0.961150000000    -1.6336     
O109     O      0.574730000000     0.687590000000     0.073330000000    -0.566267   
O110     O      0.615250000000     0.414940000000     0.985140000000    -0.608691   
O111     O      0.512420000000     0.571410000000     0.184130000000    -0.575402   
O112     O      0.505290000000     0.651790000000     0.914900000000    -0.617907   
O113     O      0.534390000000     0.507870000000     0.875050000000    -0.636227   
O114     O      0.529260000000     0.424740000000     0.141880000000    -0.58075    
O115     O      0.659540000000     0.539950000000     0.106060000000    -0.577267   
O116     O      0.659430000000     0.580640000000     0.963800000000    -0.579406   
O117     O      0.595430000000     0.512040000000     0.166790000000    -0.575675   
O118     O      0.596460000000     0.585220000000     0.896590000000    -0.621829   
O119     O      0.502730000000     0.655300000000     0.140240000000    -0.568816   
O120     O      0.535440000000     0.378630000000     0.061020000000    -0.606701   
O121     O      0.543790000000     0.424190000000     0.919270000000    -0.624434   
O122     O      0.497290000000     0.698210000000     0.995460000000    -0.561702   
O123     O      0.648540000000     0.632040000000     0.058900000000    -0.565859   
O124     O      0.669940000000     0.488530000000     0.007480000000    -0.579097   
O125     O      0.579280000000     0.511380000000     0.968200000000    -1.46933    
O126     O      0.564150000000     0.582080000000     0.093990000000    -1.37361    
O127     O      0.587870000000     0.478390000000     0.073070000000    -1.06157    
O128     O      0.571100000000     0.621660000000     0.997750000000    -1.04642    


