data_structure

_audit_creation_method RASPA-1.0
_audit_creation_date 2023-5-19
_audit_author_name 'Poobodin Mano'

_cell_length_a    26.2633
_cell_length_b    26.2519
_cell_length_c    26.2523
_cell_angle_alpha 90
_cell_angle_beta  90
_cell_angle_gamma 90
_cell_volume      18100

_symmetry_cell_setting          triclinic
_symmetry_space_group_name_Hall 'P 1'
_symmetry_space_group_name_H-M  'P 1'
_symmetry_Int_Tables_number     1

_symmetry_equiv_pos_as_xyz 'x,y,z'

loop_
_atom_site_label
_atom_site_type_symbol
_atom_site_fract_x
_atom_site_fract_y
_atom_site_fract_z
_atom_site_charge
C1       C      0.002750000000     0.130300000000     0.131410000000     0.50465    
C2       C      0.016500000000     0.887150000000     0.131840000000     0.506883   
C3       C      0.886180000000     0.015180000000     0.132100000000     0.506187   
C4       C      0.129430000000     0.005420000000     0.131260000000     0.504771   
C5       C      0.004830000000     0.887200000000     0.887480000000     0.496302   
C6       C      0.016460000000     0.131570000000     0.888260000000     0.507926   
C7       C      0.886200000000     0.886780000000     0.007030000000     0.496073   
C8       C      0.130520000000     0.887320000000     0.015840000000     0.507667   
C9       C      0.129400000000     0.130760000000     0.006160000000     0.504053   
C10      C      0.886130000000     0.131190000000     0.016050000000     0.507605   
C11      C      0.886270000000     0.007160000000     0.887480000000     0.497065   
C12      C      0.130600000000     0.016080000000     0.888040000000     0.507885   
C13      C      0.002830000000     0.386800000000     0.387950000000     0.505619   
C14      C      0.016310000000     0.629970000000     0.386690000000     0.507887   
C15      C      0.886170000000     0.501570000000     0.386950000000     0.509103   
C16      C      0.129240000000     0.511910000000     0.387490000000     0.50716    
C17      C      0.004730000000     0.630740000000     0.631060000000     0.496753   
C18      C      0.016630000000     0.386380000000     0.631110000000     0.508455   
C19      C      0.886130000000     0.630620000000     0.511090000000     0.498466   
C20      C      0.130440000000     0.630280000000     0.502170000000     0.509807   
C21      C      0.129570000000     0.387070000000     0.512840000000     0.50727    
C22      C      0.886330000000     0.386000000000     0.503060000000     0.508678   
C23      C      0.886180000000     0.510570000000     0.631370000000     0.498951   
C24      C      0.130690000000     0.502210000000     0.630910000000     0.509507   
C25      C      0.629350000000     0.005470000000     0.387680000000     0.504745   
C26      C      0.386110000000     0.015550000000     0.386880000000     0.507167   
C27      C      0.515780000000     0.887330000000     0.386780000000     0.509367   
C28      C      0.502380000000     0.130390000000     0.387770000000     0.507818   
C29      C      0.386200000000     0.007060000000     0.631440000000     0.49726    
C30      C      0.630530000000     0.015730000000     0.630900000000     0.50772    
C31      C      0.386060000000     0.886900000000     0.511240000000     0.498557   
C32      C      0.386230000000     0.131460000000     0.502790000000     0.509303   
C33      C      0.629490000000     0.130470000000     0.512700000000     0.50701    
C34      C      0.630400000000     0.887250000000     0.502440000000     0.508897   
C35      C      0.504110000000     0.886970000000     0.631160000000     0.498735   
C36      C      0.515990000000     0.131470000000     0.630970000000     0.509673   
C37      C      0.385960000000     0.387150000000     0.012990000000     0.504152   
C38      C      0.385480000000     0.630520000000     0.002900000000     0.507779   
C39      C      0.384990000000     0.502120000000     0.130930000000     0.508977   
C40      C      0.386410000000     0.512190000000     0.887570000000     0.506639   
C41      C      0.629790000000     0.630400000000     0.011830000000     0.496882   
C42      C      0.629220000000     0.385960000000     0.003180000000     0.508607   
C43      C      0.511700000000     0.630540000000     0.131210000000     0.49877    
C44      C      0.500140000000     0.630210000000     0.886860000000     0.509454   
C45      C      0.513070000000     0.387090000000     0.887830000000     0.507835   
C46      C      0.499380000000     0.386090000000     0.131000000000     0.509127   
C47      C      0.629480000000     0.510300000000     0.131440000000     0.499398   
C48      C      0.629510000000     0.501640000000     0.886970000000     0.509779   
C49      C      0.497450000000     0.156070000000     0.296440000000    -0.00588235 
C50      C      0.495270000000     0.360470000000     0.222360000000    -0.00714631 
C51      C      0.493860000000     0.294870000000     0.157020000000    -0.00539872 
C52      C      0.493590000000     0.271670000000     0.208540000000     0.00747882 
C53      C      0.494320000000     0.309090000000     0.245790000000     0.00863515 
C54      C      0.495610000000     0.296740000000     0.297710000000    -0.0630914  
C55      C      0.498410000000     0.221700000000     0.361760000000    -0.00605809 
C56      C      0.494230000000     0.219790000000     0.221120000000    -0.0625447  
C57      C      0.496010000000     0.244870000000     0.310300000000     0.0074844  
C58      C      0.495400000000     0.207450000000     0.273050000000     0.00701264 
C59      C      0.515410000000     0.656570000000     0.222500000000    -0.00769794 
C60      C      0.520960000000     0.861300000000     0.295560000000    -0.00568036 
C61      C      0.519550000000     0.795980000000     0.361180000000    -0.00699789 
C62      C      0.520180000000     0.772540000000     0.309820000000     0.00901853 
C63      C      0.520920000000     0.809780000000     0.272380000000     0.00839241 
C64      C      0.520050000000     0.797190000000     0.220520000000    -0.06253    
C65      C      0.516410000000     0.721880000000     0.156850000000    -0.0076421  
C66      C      0.518640000000     0.720630000000     0.297500000000    -0.0628907  
C67      C      0.518620000000     0.745270000000     0.208210000000     0.00889067 
C68      C      0.517990000000     0.708030000000     0.245640000000     0.0090635  
C69      C      0.500550000000     0.860960000000     0.722470000000    -0.00802104 
C70      C      0.495120000000     0.656250000000     0.795630000000    -0.00535527 
C71      C      0.496540000000     0.721580000000     0.861240000000    -0.00750606 
C72      C      0.495940000000     0.745010000000     0.809850000000     0.00961238 
C73      C      0.495200000000     0.707760000000     0.772440000000     0.00799284 
C74      C      0.496050000000     0.720330000000     0.720560000000    -0.0623114  
C75      C      0.499590000000     0.795630000000     0.656850000000    -0.00756733 
C76      C      0.497440000000     0.796930000000     0.797510000000    -0.0630979  
C77      C      0.497450000000     0.772250000000     0.708220000000     0.00867844 
C78      C      0.498070000000     0.809500000000     0.745650000000     0.00958851 
C79      C      0.517910000000     0.361420000000     0.796510000000    -0.00571304 
C80      C      0.520000000000     0.157060000000     0.722340000000    -0.00712914 
C81      C      0.521400000000     0.222680000000     0.657030000000    -0.00535437 
C82      C      0.521660000000     0.245860000000     0.708560000000     0.00773696 
C83      C      0.520920000000     0.208430000000     0.745790000000     0.00885935 
C84      C      0.519650000000     0.220750000000     0.797720000000    -0.0629449  
C85      C      0.516910000000     0.295780000000     0.861810000000    -0.00628816 
C86      C      0.521050000000     0.297730000000     0.721170000000    -0.0623192  
C87      C      0.519270000000     0.272620000000     0.810340000000     0.00788721 
C88      C      0.519900000000     0.310050000000     0.773100000000     0.00720433 
C89      C      0.720890000000     0.156150000000     0.511660000000    -0.00609302 
C90      C      0.794940000000     0.360350000000     0.501960000000    -0.00712702 
C91      C      0.860170000000     0.294680000000     0.500790000000    -0.00565235 
C92      C      0.808710000000     0.271550000000     0.503300000000     0.00794419 
C93      C      0.771510000000     0.309000000000     0.503890000000     0.00866563 
C94      C      0.719660000000     0.296750000000     0.506930000000    -0.0628477  
C95      C      0.655640000000     0.221820000000     0.512380000000    -0.00610852 
C96      C      0.796140000000     0.219720000000     0.505830000000    -0.0625207  
C97      C      0.707090000000     0.244930000000     0.509360000000     0.00740253 
C98      C      0.744280000000     0.207480000000     0.508880000000     0.00723453 
C99      C      0.794800000000     0.656690000000     0.510630000000    -0.00780787 
C100     C      0.721680000000     0.861190000000     0.499440000000    -0.00586905 
C101     C      0.656120000000     0.795850000000     0.501070000000    -0.00712502 
C102     C      0.707480000000     0.772480000000     0.502550000000     0.00899282 
C103     C      0.744870000000     0.809740000000     0.501700000000     0.00860189 
C104     C      0.796710000000     0.797230000000     0.503890000000    -0.0625752  
C105     C      0.860370000000     0.722030000000     0.509450000000    -0.00790853 
C106     C      0.719810000000     0.720620000000     0.505520000000    -0.0628324  
C107     C      0.809030000000     0.745370000000     0.506850000000     0.00923498 
C108     C      0.771630000000     0.708120000000     0.507590000000     0.00905554 
C109     C      0.220940000000     0.361350000000     0.511680000000    -0.00591682 
C110     C      0.294840000000     0.157120000000     0.501710000000    -0.00712609 
C111     C      0.360100000000     0.222770000000     0.500400000000    -0.00539076 
C112     C      0.308660000000     0.245920000000     0.503010000000     0.00760602 
C113     C      0.271450000000     0.208480000000     0.503700000000     0.0084417  
C114     C      0.219610000000     0.220750000000     0.506890000000    -0.0630272  
C115     C      0.155660000000     0.295710000000     0.512540000000    -0.00605472 
C116     C      0.296130000000     0.297740000000     0.505610000000    -0.0626071  
C117     C      0.207080000000     0.272580000000     0.509360000000     0.00712783 
C118     C      0.244290000000     0.310010000000     0.508810000000     0.00699382 
C119     C      0.156110000000     0.721680000000     0.500720000000    -0.00715737 
C120     C      0.360320000000     0.795500000000     0.509610000000    -0.00753013 
C121     C      0.294740000000     0.860840000000     0.510710000000    -0.00798502 
C122     C      0.271590000000     0.809420000000     0.507570000000     0.00936472 
C123     C      0.308980000000     0.772170000000     0.506870000000     0.00871934 
C124     C      0.296680000000     0.720320000000     0.503820000000    -0.0623882  
C125     C      0.221690000000     0.656360000000     0.499160000000    -0.00532547 
C126     C      0.219760000000     0.796910000000     0.505370000000    -0.0630283  
C127     C      0.244860000000     0.707810000000     0.501500000000     0.00803995 
C128     C      0.207460000000     0.745060000000     0.502320000000     0.00919414 
C129     C      0.794790000000     0.499960000000     0.361370000000    -0.00709789 
C130     C      0.720820000000     0.508810000000     0.157160000000    -0.00754234 
C131     C      0.655530000000     0.509610000000     0.222800000000    -0.00764482 
C132     C      0.706960000000     0.506610000000     0.245930000000     0.00894523 
C133     C      0.744170000000     0.506080000000     0.208490000000     0.00877772 
C134     C      0.796020000000     0.503170000000     0.220750000000    -0.0626076  
C135     C      0.860020000000     0.498650000000     0.295690000000    -0.00559694 
C136     C      0.719510000000     0.504420000000     0.297760000000    -0.0629869  
C137     C      0.808560000000     0.500860000000     0.272570000000     0.00824911 
C138     C      0.771360000000     0.501530000000     0.310020000000     0.00891715 
C139     C      0.154950000000     0.510660000000     0.296050000000    -0.00597064 
C140     C      0.359190000000     0.501100000000     0.222290000000    -0.0071281  
C141     C      0.293660000000     0.499620000000     0.156920000000    -0.00543336 
C142     C      0.270440000000     0.502220000000     0.208360000000     0.00747246 
C143     C      0.307820000000     0.502980000000     0.245630000000     0.00872901 
C144     C      0.295500000000     0.506160000000     0.297470000000    -0.0630183  
C145     C      0.220530000000     0.511690000000     0.361380000000    -0.00600852 
C146     C      0.218610000000     0.504700000000     0.220850000000    -0.0624782  
C147     C      0.243680000000     0.508540000000     0.309960000000     0.00742552 
C148     C      0.206290000000     0.507890000000     0.272710000000     0.00685683 
C149     C      0.360690000000     0.510940000000     0.796130000000    -0.00597838 
C150     C      0.156460000000     0.501350000000     0.722300000000    -0.00711098 
C151     C      0.222010000000     0.499760000000     0.656960000000    -0.00543342 
C152     C      0.245220000000     0.502430000000     0.708410000000     0.00771281 
C153     C      0.207820000000     0.503260000000     0.745660000000     0.00879958 
C154     C      0.220130000000     0.506490000000     0.797510000000    -0.0629685  
C155     C      0.295100000000     0.512050000000     0.861450000000    -0.00644835 
C156     C      0.297040000000     0.504920000000     0.720920000000    -0.0623565  
C157     C      0.271950000000     0.508870000000     0.810020000000     0.00774772 
C158     C      0.309350000000     0.508170000000     0.772770000000     0.00705964 
C159     C      0.860130000000     0.509870000000     0.722740000000    -0.00799736 
C160     C      0.655650000000     0.498860000000     0.795700000000    -0.00522981 
C161     C      0.720900000000     0.500060000000     0.861360000000    -0.00744933 
C162     C      0.744320000000     0.501690000000     0.810000000000     0.00958281 
C163     C      0.707110000000     0.501070000000     0.772560000000     0.00794304 
C164     C      0.719640000000     0.503460000000     0.720730000000    -0.0623456  
C165     C      0.794830000000     0.509150000000     0.657120000000    -0.0075608  
C166     C      0.796170000000     0.504600000000     0.797730000000    -0.0630776  
C167     C      0.771490000000     0.506370000000     0.708460000000     0.00869615 
C168     C      0.808710000000     0.506860000000     0.745890000000     0.00954712 
C169     C      0.860310000000     0.795340000000     0.006700000000    -0.0126414  
C170     C      0.655780000000     0.721780000000     0.012160000000    -0.0123766  
C171     C      0.721190000000     0.656270000000     0.012370000000    -0.0125401  
C172     C      0.744520000000     0.707710000000     0.010980000000     0.00971219 
C173     C      0.707210000000     0.745060000000     0.010860000000     0.00962657 
C174     C      0.719680000000     0.796940000000     0.009320000000    -0.0641804  
C175     C      0.794860000000     0.860810000000     0.006500000000    -0.0125457  
C176     C      0.796400000000     0.720140000000     0.009550000000    -0.064217   
C177     C      0.771560000000     0.809380000000     0.007900000000     0.00975118 
C178     C      0.808870000000     0.772040000000     0.008010000000     0.00980909 
C179     C      0.859790000000     0.222410000000     0.017890000000    -0.0103294  
C180     C      0.655450000000     0.294670000000     0.001450000000    -0.0100564  
C181     C      0.720560000000     0.360460000000     0.003510000000    -0.0115992  
C182     C      0.743980000000     0.309210000000     0.006530000000     0.00954828 
C183     C      0.706880000000     0.271670000000     0.005350000000     0.00856821 
C184     C      0.719480000000     0.219910000000     0.008450000000    -0.0639224  
C185     C      0.794730000000     0.156580000000     0.015790000000    -0.0115443  
C186     C      0.795760000000     0.297130000000     0.010890000000    -0.064102   
C187     C      0.771270000000     0.207830000000     0.012800000000     0.00920524 
C188     C      0.808360000000     0.245370000000     0.013990000000     0.0090589  
C189     C      0.294270000000     0.656810000000     0.000890000000    -0.0101858  
C190     C      0.221770000000     0.861120000000     0.017740000000    -0.0103169  
C191     C      0.156080000000     0.795940000000     0.015300000000    -0.0115692  
C192     C      0.207350000000     0.772550000000     0.012350000000     0.00935491 
C193     C      0.244820000000     0.809710000000     0.013740000000     0.00914369 
C194     C      0.296590000000     0.797160000000     0.010740000000    -0.0640034  
C195     C      0.360010000000     0.721950000000     0.003350000000    -0.011772   
C196     C      0.219490000000     0.720770000000     0.007880000000    -0.0638786  
C197     C      0.308740000000     0.745370000000     0.006280000000     0.00965047 
C198     C      0.271250000000     0.708220000000     0.004880000000     0.0087262  
C199     C      0.294520000000     0.361280000000     0.013340000000    -0.0108976  
C200     C      0.220770000000     0.156740000000     0.005820000000    -0.0107237  
C201     C      0.155350000000     0.222220000000     0.005950000000    -0.0108382  
C202     C      0.206790000000     0.245530000000     0.007700000000     0.00740879 
C203     C      0.244090000000     0.208180000000     0.007640000000     0.00747438 
C204     C      0.295970000000     0.220600000000     0.009530000000    -0.0641995  
C205     C      0.359900000000     0.295750000000     0.013250000000    -0.0108685  
C206     C      0.219280000000     0.297420000000     0.009660000000    -0.0642119  
C207     C      0.308450000000     0.272490000000     0.011480000000     0.0075167  
C208     C      0.271160000000     0.309850000000     0.011540000000     0.00746635 
C209     C      0.656280000000     0.017100000000     0.722270000000    -0.0119392  
C210     C      0.860540000000     0.008820000000     0.796060000000    -0.0124058  
C211     C      0.794960000000     0.007600000000     0.861400000000    -0.0126225  
C212     C      0.771800000000     0.010630000000     0.809970000000     0.00994361 
C213     C      0.809190000000     0.011380000000     0.772720000000     0.00957194 
C214     C      0.796870000000     0.014330000000     0.720860000000    -0.0637929  
C215     C      0.721820000000     0.018730000000     0.656900000000    -0.010232   
C216     C      0.719970000000     0.012670000000     0.797470000000    -0.064367   
C217     C      0.745040000000     0.016480000000     0.708360000000     0.00881452 
C218     C      0.707650000000     0.015620000000     0.745620000000     0.00984517 
C219     C      0.156310000000     0.017560000000     0.796680000000    -0.0116238  
C220     C      0.360500000000     0.008680000000     0.722850000000    -0.0122439  
C221     C      0.294900000000     0.007620000000     0.657520000000    -0.0125104  
C222     C      0.271770000000     0.010750000000     0.708950000000     0.00960196 
C223     C      0.309180000000     0.011420000000     0.746200000000     0.00937668 
C224     C      0.296880000000     0.014450000000     0.798060000000    -0.0640016  
C225     C      0.221880000000     0.019090000000     0.862020000000    -0.0103267  
C226     C      0.219960000000     0.012940000000     0.721460000000    -0.0643375  
C227     C      0.245060000000     0.016770000000     0.810560000000     0.00892352 
C228     C      0.207660000000     0.015970000000     0.773310000000     0.00946061 
C229     C      0.359950000000     0.017940000000     0.295590000000    -0.0101445  
C230     C      0.155490000000     0.005730000000     0.222640000000    -0.0108777  
C231     C      0.220790000000     0.006590000000     0.157020000000    -0.0106848  
C232     C      0.244130000000     0.009470000000     0.208360000000     0.00762244 
C233     C      0.206910000000     0.008910000000     0.245790000000     0.00784441 
C234     C      0.219450000000     0.011410000000     0.297620000000    -0.0643741  
C235     C      0.294700000000     0.016630000000     0.361250000000    -0.0118738  
C236     C      0.295970000000     0.012690000000     0.220630000000    -0.0638988  
C237     C      0.271290000000     0.014610000000     0.309890000000     0.00915824 
C238     C      0.308500000000     0.015290000000     0.272450000000     0.00825152 
C239     C      0.720720000000     0.006520000000     0.361950000000    -0.0107676  
C240     C      0.794760000000     0.016230000000     0.157730000000    -0.0119256  
C241     C      0.859980000000     0.017450000000     0.223410000000    -0.0104893  
C242     C      0.808520000000     0.014930000000     0.246540000000     0.00864084 
C243     C      0.771320000000     0.014300000000     0.209080000000     0.00922831 
C244     C      0.719470000000     0.011250000000     0.221340000000    -0.0642241  
C245     C      0.655450000000     0.005790000000     0.296300000000    -0.0109559  
C246     C      0.795950000000     0.012390000000     0.298360000000    -0.063898   
C247     C      0.706900000000     0.008830000000     0.273170000000     0.00796767 
C248     C      0.744100000000     0.009320000000     0.310610000000     0.00786054 
C249     C      0.022690000000     0.222740000000     0.862220000000    -0.0103385  
C250     C      0.022950000000     0.295300000000     0.657280000000    -0.0100624  
C251     C      0.022410000000     0.361090000000     0.722440000000    -0.0116278  
C252     C      0.024420000000     0.309810000000     0.745980000000     0.0095408  
C253     C      0.024600000000     0.272290000000     0.708830000000     0.00869887 
C254     C      0.024400000000     0.220460000000     0.721550000000    -0.0639295  
C255     C      0.022340000000     0.157000000000     0.797010000000    -0.0114174  
C256     C      0.024280000000     0.297630000000     0.797950000000    -0.06409    
C257     C      0.024370000000     0.208280000000     0.773510000000     0.00928912 
C258     C      0.024440000000     0.245790000000     0.810680000000     0.0090508  
C259     C      0.002220000000     0.656720000000     0.722400000000    -0.0124161  
C260     C      0.002290000000     0.861340000000     0.796060000000    -0.0125877  
C261     C      0.002270000000     0.795840000000     0.861520000000    -0.0126433  
C262     C      0.001470000000     0.772550000000     0.810060000000     0.00979714 
C263     C      0.001470000000     0.809890000000     0.772730000000     0.00976508 
C264     C      0.001500000000     0.797420000000     0.720810000000    -0.0642194  
C265     C      0.002190000000     0.722160000000     0.656890000000    -0.0125398  
C266     C      0.001510000000     0.720640000000     0.797590000000    -0.0642207  
C267     C      0.001440000000     0.745500000000     0.708350000000     0.00967756 
C268     C      0.001440000000     0.708170000000     0.745690000000     0.00963914 
C269     C      0.022110000000     0.721240000000     0.361260000000    -0.0117459  
C270     C      0.022230000000     0.795810000000     0.157140000000    -0.0117351  
C271     C      0.022730000000     0.860970000000     0.222930000000    -0.0103956  
C272     C      0.024360000000     0.809420000000     0.245950000000     0.00919395 
C273     C      0.024200000000     0.772260000000     0.208430000000     0.00943501 
C274     C      0.024070000000     0.720290000000     0.220620000000    -0.0638691  
C275     C      0.022500000000     0.656020000000     0.295520000000    -0.0101763  
C276     C      0.024150000000     0.796700000000     0.297780000000    -0.0640476  
C277     C      0.024210000000     0.707560000000     0.272460000000     0.00877336 
C278     C      0.024130000000     0.744730000000     0.309970000000     0.00971218 
C279     C      0.999500000000     0.221660000000     0.157410000000     0.00101149 
C280     C      0.999670000000     0.295370000000     0.362090000000     0.00100387 
C281     C      0.999550000000     0.360820000000     0.296600000000     0.00109924 
C282     C      0.998570000000     0.309360000000     0.273290000000     0.00616598 
C283     C      0.998640000000     0.272020000000     0.310620000000     0.00615256 
C284     C      0.998720000000     0.220100000000     0.298130000000    -0.0610761  
C285     C      0.999580000000     0.156150000000     0.222840000000     0.00095093 
C286     C      0.998600000000     0.296880000000     0.221370000000    -0.0610355  
C287     C      0.998610000000     0.207610000000     0.246200000000     0.00614241 
C288     C      0.998560000000     0.244960000000     0.208880000000     0.00618286 
Eu1      Eu     0.007280000000     0.008180000000     0.100050000000     3.46061    
Eu2      Eu     0.008270000000     0.918220000000     0.009670000000     3.02576    
Eu3      Eu     0.007290000000     0.099370000000     0.009190000000     3.46775    
Eu4      Eu     0.917270000000     0.008970000000     0.009760000000     3.03289    
Eu5      Eu     0.098410000000     0.008490000000     0.009100000000     3.4876     
Eu6      Eu     0.008320000000     0.009300000000     0.918850000000     3.04192    
Eu7      Eu     0.007230000000     0.509030000000     0.418900000000     3.47957    
Eu8      Eu     0.008180000000     0.599310000000     0.508950000000     3.03118    
Eu9      Eu     0.007410000000     0.418150000000     0.510070000000     3.48147    
Eu10     Eu     0.917270000000     0.508390000000     0.509190000000     3.06005    
Eu11     Eu     0.098400000000     0.509190000000     0.509790000000     3.52771    
Eu12     Eu     0.008330000000     0.508550000000     0.600100000000     3.04145    
Eu13     Eu     0.507190000000     0.008310000000     0.418900000000     3.47873    
Eu14     Eu     0.417220000000     0.009100000000     0.509180000000     3.03125    
Eu15     Eu     0.598260000000     0.008360000000     0.509830000000     3.4827     
Eu16     Eu     0.508110000000     0.918170000000     0.509060000000     3.06323    
Eu17     Eu     0.507320000000     0.099410000000     0.509930000000     3.5187     
Eu18     Eu     0.508240000000     0.009150000000     0.600100000000     3.04151    
Eu19     Eu     0.417320000000     0.509320000000     0.009860000000     3.48012    
Eu20     Eu     0.507640000000     0.599300000000     0.009180000000     3.02986    
Eu21     Eu     0.508170000000     0.418150000000     0.009970000000     3.48298    
Eu22     Eu     0.507350000000     0.508410000000     0.100170000000     3.06359    
Eu23     Eu     0.508450000000     0.509170000000     0.918930000000     3.51878    
Eu24     Eu     0.598420000000     0.508260000000     0.009270000000     3.04453    
H1       H      0.961100000000     0.961550000000     0.093970000000    -0.173255   
H2       H      0.081630000000     0.083080000000     0.083920000000     0.40964    
H3       H      0.961120000000     0.093390000000     0.962540000000    -0.173758   
H4       H      0.092360000000     0.962240000000     0.962670000000    -0.180518   
H5       H      0.960960000000     0.555640000000     0.424800000000    -0.17504    
H6       H      0.081660000000     0.434340000000     0.435200000000     0.411382   
H7       H      0.961200000000     0.424200000000     0.556700000000    -0.175641   
H8       H      0.092340000000     0.555620000000     0.556060000000    -0.188465   
H9       H      0.460920000000     0.961780000000     0.424900000000    -0.175892   
H10      H      0.581550000000     0.083100000000     0.435080000000     0.410985   
H11      H      0.592250000000     0.961970000000     0.556200000000    -0.179012   
H12      H      0.461070000000     0.093370000000     0.556490000000    -0.183943   
H13      H      0.423460000000     0.555610000000     0.056220000000    -0.182072   
H14      H      0.433920000000     0.434500000000     0.935170000000     0.411057   
H15      H      0.554340000000     0.424110000000     0.056590000000    -0.178288   
H16      H      0.554780000000     0.555630000000     0.925000000000    -0.18484    
H17      H      0.458830000000     0.284730000000     0.135530000000     0.0381636  
H18      H      0.460970000000     0.382800000000     0.233140000000     0.0381789  
H19      H      0.496700000000     0.325970000000     0.326780000000     0.0405485  
H20      H      0.494270000000     0.190570000000     0.192030000000     0.0400007  
H21      H      0.463020000000     0.133450000000     0.286720000000     0.0386711  
H22      H      0.533150000000     0.234030000000     0.382560000000     0.0322591  
H23      H      0.527590000000     0.282360000000     0.134710000000     0.0364198  
H24      H      0.529770000000     0.382040000000     0.234050000000     0.0379643  
H25      H      0.464420000000     0.232020000000     0.384780000000     0.0388732  
H26      H      0.531740000000     0.134770000000     0.283690000000     0.0322507  
H27      H      0.553910000000     0.785060000000     0.383370000000     0.0385184  
H28      H      0.556040000000     0.882640000000     0.285290000000     0.03922    
H29      H      0.520050000000     0.826280000000     0.191290000000     0.04122    
H30      H      0.517570000000     0.691570000000     0.326740000000     0.041193   
H31      H      0.549310000000     0.633430000000     0.232840000000     0.0386468  
H32      H      0.482070000000     0.734650000000     0.135640000000     0.038448   
H33      H      0.485110000000     0.784420000000     0.382920000000     0.0383193  
H34      H      0.487270000000     0.883750000000     0.283180000000     0.0375089  
H35      H      0.550790000000     0.731570000000     0.134130000000     0.0386083  
H36      H      0.480580000000     0.635920000000     0.234850000000     0.0383975  
H37      H      0.462190000000     0.732540000000     0.883420000000     0.0392476  
H38      H      0.460040000000     0.634910000000     0.785330000000     0.0388143  
H39      H      0.496030000000     0.691240000000     0.691340000000     0.041012   
H40      H      0.498490000000     0.825990000000     0.826740000000     0.0420442  
H41      H      0.466620000000     0.884060000000     0.732840000000     0.0393428  
H42      H      0.533930000000     0.782910000000     0.635630000000     0.0385059  
H43      H      0.530990000000     0.733100000000     0.882970000000     0.0390409  
H44      H      0.528810000000     0.633780000000     0.783290000000     0.0370491  
H45      H      0.465210000000     0.785870000000     0.634160000000     0.0386988  
H46      H      0.535360000000     0.881670000000     0.734770000000     0.0390752  
H47      H      0.556410000000     0.232850000000     0.635540000000     0.0386916  
H48      H      0.554290000000     0.134720000000     0.733140000000     0.038421   
H49      H      0.518570000000     0.191510000000     0.826780000000     0.0409186  
H50      H      0.521030000000     0.326970000000     0.692090000000     0.0404769  
H51      H      0.552360000000     0.384010000000     0.786770000000     0.0391899  
H52      H      0.482160000000     0.283480000000     0.882610000000     0.0327614  
H53      H      0.487650000000     0.235180000000     0.634730000000     0.0366426  
H54      H      0.485500000000     0.135470000000     0.734010000000     0.0379001  
H55      H      0.550900000000     0.285400000000     0.884820000000     0.0396698  
H56      H      0.483640000000     0.382760000000     0.783780000000     0.0324755  
H57      H      0.880360000000     0.283200000000     0.465400000000     0.0384107  
H58      H      0.782970000000     0.381300000000     0.467170000000     0.0380578  
H59      H      0.690620000000     0.326020000000     0.507490000000     0.0406539  
H60      H      0.825180000000     0.190470000000     0.505540000000     0.0406497  
H61      H      0.731020000000     0.132820000000     0.477800000000     0.0322664  
H62      H      0.635490000000     0.233910000000     0.547590000000     0.0385542  
H63      H      0.883700000000     0.283420000000     0.534150000000     0.0376024  
H64      H      0.784410000000     0.383310000000     0.535950000000     0.0384626  
H65      H      0.632070000000     0.232480000000     0.478860000000     0.0323849  
H66      H      0.733240000000     0.135580000000     0.546540000000     0.0387409  
H67      H      0.633460000000     0.785250000000     0.535230000000     0.0386409  
H68      H      0.733180000000     0.884710000000     0.532730000000     0.0378347  
H69      H      0.825910000000     0.826330000000     0.503460000000     0.0418124  
H70      H      0.690590000000     0.691550000000     0.506330000000     0.0412356  
H71      H      0.782830000000     0.636570000000     0.545910000000     0.0383085  
H72      H      0.883490000000     0.732040000000     0.475420000000     0.0395908  
H73      H      0.634920000000     0.783910000000     0.466430000000     0.0382789  
H74      H      0.732830000000     0.881440000000     0.463970000000     0.039265   
H75      H      0.881110000000     0.734560000000     0.544170000000     0.0388311  
H76      H      0.784090000000     0.633040000000     0.477180000000     0.0388714  
H77      H      0.383710000000     0.234040000000     0.533690000000     0.0369839  
H78      H      0.284360000000     0.134160000000     0.535720000000     0.0381264  
H79      H      0.190560000000     0.191500000000     0.507520000000     0.0401451  
H80      H      0.325190000000     0.326980000000     0.505270000000     0.0403289  
H81      H      0.233390000000     0.381880000000     0.546550000000     0.0385418  
H82      H      0.131980000000     0.285070000000     0.479090000000     0.0319619  
H83      H      0.380200000000     0.234210000000     0.464950000000     0.0378482  
H84      H      0.282820000000     0.136180000000     0.466930000000     0.0375869  
H85      H      0.135600000000     0.283630000000     0.547810000000     0.0381659  
H86      H      0.231010000000     0.384700000000     0.477810000000     0.0321314  
H87      H      0.282710000000     0.880920000000     0.545990000000     0.0386854  
H88      H      0.380980000000     0.782950000000     0.544360000000     0.0381098  
H89      H      0.325890000000     0.691220000000     0.503420000000     0.0409692  
H90      H      0.190550000000     0.825990000000     0.506150000000     0.0414288  
H91      H      0.133370000000     0.732270000000     0.534830000000     0.0385426  
H92      H      0.232890000000     0.636160000000     0.463670000000     0.0384998  
H93      H      0.284090000000     0.884530000000     0.477260000000     0.0393346  
H94      H      0.383510000000     0.785510000000     0.475620000000     0.0389419  
H95      H      0.233160000000     0.632800000000     0.532430000000     0.0370762  
H96      H      0.134980000000     0.733620000000     0.466030000000     0.0380618  
H97      H      0.635340000000     0.544800000000     0.234900000000     0.0379963  
H98      H      0.733250000000     0.543630000000     0.136530000000     0.0382052  
H99      H      0.825070000000     0.502900000000     0.191500000000     0.0411038  
H100     H      0.690470000000     0.505090000000     0.327020000000     0.0410667  
H101     H      0.784140000000     0.534040000000     0.384150000000     0.0384729  
H102     H      0.880300000000     0.463230000000     0.284430000000     0.038645   
H103     H      0.631990000000     0.476060000000     0.233420000000     0.0386425  
H104     H      0.730890000000     0.474880000000     0.133910000000     0.0385788  
H105     H      0.883450000000     0.532000000000     0.284220000000     0.0376395  
H106     H      0.782970000000     0.465230000000     0.382500000000     0.0381644  
H107     H      0.282360000000     0.532890000000     0.133270000000     0.0368331  
H108     H      0.382050000000     0.535160000000     0.232790000000     0.0385696  
H109     H      0.324710000000     0.506860000000     0.326560000000     0.0406752  
H110     H      0.189410000000     0.504290000000     0.191750000000     0.0399506  
H111     H      0.134340000000     0.545470000000     0.283570000000     0.0383297  
H112     H      0.231220000000     0.478270000000     0.385090000000     0.0322934  
H113     H      0.282310000000     0.464140000000     0.136810000000     0.0377337  
H114     H      0.380170000000     0.466370000000     0.234370000000     0.0377588  
H115     H      0.232540000000     0.547000000000     0.381440000000     0.038714   
H116     H      0.131690000000     0.476730000000     0.286000000000     0.0318219  
H117     H      0.233370000000     0.464240000000     0.636910000000     0.0381989  
H118     H      0.135460000000     0.466650000000     0.734430000000     0.0377358  
H119     H      0.190920000000     0.507230000000     0.826590000000     0.0409249  
H120     H      0.326250000000     0.504450000000     0.691830000000     0.0404862  
H121     H      0.383940000000     0.477000000000     0.786110000000     0.0323142  
H122     H      0.283110000000     0.547380000000     0.881470000000     0.0392423  
H123     H      0.233320000000     0.532980000000     0.633260000000     0.0370705  
H124     H      0.133600000000     0.535440000000     0.732730000000     0.0385081  
H125     H      0.284390000000     0.478650000000     0.885180000000     0.0329664  
H126     H      0.381310000000     0.545740000000     0.783630000000     0.0386548  
H127     H      0.731570000000     0.534090000000     0.884190000000     0.0391384  
H128     H      0.632230000000     0.532240000000     0.784290000000     0.0371889  
H129     H      0.690580000000     0.503230000000     0.691500000000     0.0409688  
H130     H      0.825210000000     0.505220000000     0.826980000000     0.0420229  
H131     H      0.880330000000     0.545050000000     0.734870000000     0.0386938  
H132     H      0.784740000000     0.475250000000     0.633840000000     0.0388241  
H133     H      0.732720000000     0.465290000000     0.882440000000     0.039039   
H134     H      0.635350000000     0.463470000000     0.784390000000     0.0383065  
H135     H      0.782410000000     0.543990000000     0.636530000000     0.0383152  
H136     H      0.883680000000     0.476310000000     0.733330000000     0.039552   
H137     H      0.732730000000     0.635170000000     0.047210000000     0.0392808  
H138     H      0.634580000000     0.733470000000     0.046890000000     0.0390725  
H139     H      0.690550000000     0.826110000000     0.009230000000     0.0411284  
H140     H      0.825530000000     0.690970000000     0.009640000000     0.0411717  
H141     H      0.882950000000     0.784420000000     0.040770000000     0.0401221  
H142     H      0.783290000000     0.881910000000     0.971660000000     0.04262    
H143     H      0.732200000000     0.633510000000     0.978400000000     0.0425686  
H144     H      0.633150000000     0.732720000000     0.978080000000     0.0426597  
H145     H      0.783840000000     0.883570000000     0.040470000000     0.0400035  
H146     H      0.881500000000     0.783670000000     0.971960000000     0.0425033  
H147     H      0.733230000000     0.381010000000     0.968740000000     0.0419807  
H148     H      0.636140000000     0.282910000000     0.965670000000     0.0416719  
H149     H      0.690520000000     0.190580000000     0.007520000000     0.0402037  
H150     H      0.824720000000     0.326460000000     0.011810000000     0.0408295  
H151     H      0.884080000000     0.233520000000     0.985040000000     0.0416045  
H152     H      0.782080000000     0.136000000000     0.050550000000     0.0386173  
H153     H      0.730340000000     0.383820000000     0.037460000000     0.039257   
H154     H      0.631170000000     0.283610000000     0.034330000000     0.0376924  
H155     H      0.784960000000     0.133230000000     0.981830000000     0.0421715  
H156     H      0.879080000000     0.234160000000     0.053700000000     0.0392637  
H157     H      0.135440000000     0.783140000000     0.049970000000     0.0386518  
H158     H      0.233420000000     0.880340000000     0.053620000000     0.0396516  
H159     H      0.325880000000     0.826150000000     0.011830000000     0.0409905  
H160     H      0.190210000000     0.691770000000     0.006790000000     0.0403468  
H161     H      0.283110000000     0.632400000000     0.033650000000     0.0378907  
H162     H      0.380660000000     0.734730000000     0.968680000000     0.0418709  
H163     H      0.132840000000     0.786240000000     0.981250000000     0.0423381  
H164     H      0.232900000000     0.885540000000     0.984980000000     0.0415337  
H165     H      0.383250000000     0.731650000000     0.037400000000     0.0395912  
H166     H      0.282640000000     0.637600000000     0.965010000000     0.0419495  
H167     H      0.134390000000     0.234020000000     0.971110000000     0.0418348  
H168     H      0.232500000000     0.135860000000     0.970900000000     0.0420473  
H169     H      0.325100000000     0.191430000000     0.009480000000     0.0395304  
H170     H      0.190150000000     0.326590000000     0.009700000000     0.0394151  
H171     H      0.283680000000     0.384250000000     0.979460000000     0.0360514  
H172     H      0.380820000000     0.283950000000     0.048110000000     0.0390281  
H173     H      0.132460000000     0.233030000000     0.039900000000     0.0326903  
H174     H      0.231640000000     0.133770000000     0.039690000000     0.0328012  
H175     H      0.382790000000     0.284910000000     0.979320000000     0.0360406  
H176     H      0.282810000000     0.382190000000     0.048250000000     0.0390631  
H177     H      0.783010000000     0.972320000000     0.881520000000     0.0424719  
H178     H      0.881310000000     0.974120000000     0.783530000000     0.0423805  
H179     H      0.826070000000     0.014780000000     0.691760000000     0.04095    
H180     H      0.690770000000     0.011860000000     0.826550000000     0.0411442  
H181     H      0.633640000000     0.982930000000     0.732880000000     0.0425018  
H182     H      0.732960000000     0.054200000000     0.636650000000     0.0394803  
H183     H      0.784230000000     0.041050000000     0.885040000000     0.0400844  
H184     H      0.883630000000     0.042870000000     0.786060000000     0.0401763  
H185     H      0.733330000000     0.985440000000     0.633390000000     0.0410595  
H186     H      0.635080000000     0.051740000000     0.734210000000     0.0391005  
H187     H      0.284250000000     0.041080000000     0.633860000000     0.039409   
H188     H      0.383710000000     0.042660000000     0.732840000000     0.0395131  
H189     H      0.326090000000     0.014830000000     0.827140000000     0.040815   
H190     H      0.190740000000     0.012170000000     0.692390000000     0.0405279  
H191     H      0.135190000000     0.052250000000     0.784750000000     0.038598   
H192     H      0.233340000000     0.985810000000     0.885560000000     0.0414159  
H193     H      0.282860000000     0.972350000000     0.637430000000     0.0418785  
H194     H      0.381160000000     0.973920000000     0.735380000000     0.0418857  
H195     H      0.233070000000     0.054560000000     0.882230000000     0.0395664  
H196     H      0.133580000000     0.983440000000     0.786060000000     0.0422064  
H197     H      0.233240000000     0.971720000000     0.136490000000     0.0423047  
H198     H      0.135440000000     0.970460000000     0.234730000000     0.0420189  
H199     H      0.190400000000     0.010790000000     0.326870000000     0.0398932  
H200     H      0.325030000000     0.013030000000     0.191390000000     0.0398225  
H201     H      0.383570000000     0.984650000000     0.284320000000     0.0409678  
H202     H      0.282670000000     0.051420000000     0.382160000000     0.0385037  
H203     H      0.230850000000     0.040450000000     0.133670000000     0.0327635  
H204     H      0.131810000000     0.039180000000     0.233270000000     0.0327836  
H205     H      0.284240000000     0.982630000000     0.384230000000     0.0422111  
H206     H      0.380030000000     0.053400000000     0.284130000000     0.0385653  
H207     H      0.883530000000     0.984120000000     0.234680000000     0.0415428  
H208     H      0.784260000000     0.982230000000     0.134780000000     0.042175   
H209     H      0.690430000000     0.010670000000     0.192080000000     0.0400857  
H210     H      0.825000000000     0.012690000000     0.327610000000     0.0403656  
H211     H      0.733090000000     0.971640000000     0.382510000000     0.0425916  
H212     H      0.631870000000     0.039310000000     0.285660000000     0.0331434  
H213     H      0.880150000000     0.052860000000     0.234880000000     0.0392926  
H214     H      0.782780000000     0.051010000000     0.136770000000     0.0387287  
H215     H      0.635300000000     0.970580000000     0.284220000000     0.0422363  
H216     H      0.730860000000     0.040380000000     0.385280000000     0.0331513  
H217     H      0.056700000000     0.383830000000     0.732400000000     0.0392195  
H218     H      0.057580000000     0.285400000000     0.635030000000     0.0394672  
H219     H      0.023700000000     0.191160000000     0.692550000000     0.0403212  
H220     H      0.023500000000     0.326930000000     0.826950000000     0.0407972  
H221     H      0.057250000000     0.232650000000     0.884570000000     0.0399347  
H222     H      0.987910000000     0.135750000000     0.784530000000     0.0418021  
H223     H      0.987950000000     0.382340000000     0.734820000000     0.0420571  
H224     H      0.988830000000     0.282440000000     0.635770000000     0.0405741  
H225     H      0.056660000000     0.134280000000     0.787100000000     0.0391052  
H226     H      0.988500000000     0.235550000000     0.883660000000     0.0411309  
H227     H      0.036630000000     0.783960000000     0.883200000000     0.0398813  
H228     H      0.036660000000     0.883020000000     0.784200000000     0.0398562  
H229     H      0.001810000000     0.826570000000     0.691660000000     0.0411671  
H230     H      0.001820000000     0.691490000000     0.826750000000     0.0411171  
H231     H      0.036580000000     0.635030000000     0.734260000000     0.0394203  
H232     H      0.967750000000     0.732860000000     0.634730000000     0.0423559  
H233     H      0.967850000000     0.785140000000     0.883700000000     0.0428132  
H234     H      0.967870000000     0.883540000000     0.785360000000     0.042782   
H235     H      0.036540000000     0.734020000000     0.635170000000     0.0394344  
H236     H      0.967790000000     0.634540000000     0.733140000000     0.0423063  
H237     H      0.057350000000     0.883220000000     0.232860000000     0.0402196  
H238     H      0.056530000000     0.785840000000     0.134430000000     0.0393379  
H239     H      0.023320000000     0.691290000000     0.191320000000     0.0404193  
H240     H      0.023450000000     0.825700000000     0.327080000000     0.040953   
H241     H      0.056420000000     0.731170000000     0.383980000000     0.0395171  
H242     H      0.988320000000     0.634560000000     0.282720000000     0.0406099  
H243     H      0.988610000000     0.882480000000     0.235760000000     0.0412437  
H244     H      0.987780000000     0.783430000000     0.135880000000     0.0419269  
H245     H      0.057070000000     0.633700000000     0.285600000000     0.0396503  
H246     H      0.987670000000     0.733680000000     0.382510000000     0.0421502  
H247     H      0.965090000000     0.383040000000     0.286070000000     0.0381776  
H248     H      0.965280000000     0.284790000000     0.384370000000     0.0380621  
H249     H      0.999160000000     0.190940000000     0.327280000000     0.0404431  
H250     H      0.998940000000     0.326040000000     0.192210000000     0.04051    
H251     H      0.965040000000     0.232220000000     0.135200000000     0.0380964  
H252     H      0.033940000000     0.134510000000     0.234810000000     0.0283173  
H253     H      0.033870000000     0.382480000000     0.284540000000     0.0284136  
H254     H      0.034050000000     0.283390000000     0.383680000000     0.0283898  
H255     H      0.965160000000     0.133900000000     0.233420000000     0.037984   
H256     H      0.033820000000     0.233690000000     0.135740000000     0.028343   
N1       N      0.499610000000     0.166880000000     0.351190000000    -0.193088   
N2       N      0.495710000000     0.349670000000     0.167570000000    -0.189311   
N3       N      0.514230000000     0.667140000000     0.167690000000    -0.186912   
N4       N      0.519290000000     0.850760000000     0.350370000000    -0.189127   
N5       N      0.501680000000     0.850380000000     0.667660000000    -0.1868     
N6       N      0.496750000000     0.666790000000     0.850440000000    -0.189104   
N7       N      0.515780000000     0.350600000000     0.851250000000    -0.192905   
N8       N      0.519580000000     0.167870000000     0.667550000000    -0.189392   
N9       N      0.666140000000     0.166980000000     0.513150000000    -0.193078   
N10      N      0.849700000000     0.349530000000     0.500920000000    -0.188998   
N11      N      0.849610000000     0.667260000000     0.511220000000    -0.186709   
N12      N      0.666860000000     0.850640000000     0.500020000000    -0.188963   
N13      N      0.166190000000     0.350540000000     0.513290000000    -0.193284   
N14      N      0.349600000000     0.167920000000     0.500590000000    -0.189325   
N15      N      0.166880000000     0.666900000000     0.499680000000    -0.189303   
N16      N      0.349540000000     0.850270000000     0.511380000000    -0.186758   
N17      N      0.849540000000     0.499080000000     0.350530000000    -0.189135   
N18      N      0.666080000000     0.510410000000     0.167980000000    -0.187141   
N19      N      0.165730000000     0.512340000000     0.350830000000    -0.193213   
N20      N      0.348470000000     0.499910000000     0.167500000000    -0.189246   
N21      N      0.349920000000     0.512660000000     0.850910000000    -0.19293    
N22      N      0.167190000000     0.500070000000     0.667510000000    -0.189281   
N23      N      0.849580000000     0.510720000000     0.667920000000    -0.186853   
N24      N      0.666140000000     0.499200000000     0.850540000000    -0.18917    
N25      N      0.849660000000     0.850160000000     0.006220000000    -0.185531   
N26      N      0.666390000000     0.666960000000     0.012630000000    -0.185911   
N27      N      0.849420000000     0.167550000000     0.017890000000    -0.188274   
N28      N      0.665870000000     0.349520000000     0.001410000000    -0.18861    
N29      N      0.349110000000     0.667230000000     0.001060000000    -0.188423   
N30      N      0.166950000000     0.850670000000     0.017600000000    -0.188217   
N31      N      0.349320000000     0.350590000000     0.013850000000    -0.191861   
N32      N      0.165970000000     0.167380000000     0.005340000000    -0.191913   
N33      N      0.667020000000     0.018140000000     0.667470000000    -0.188287   
N34      N      0.849770000000     0.007040000000     0.850830000000    -0.185776   
N35      N      0.167070000000     0.018570000000     0.851460000000    -0.18826    
N36      N      0.349710000000     0.006930000000     0.668090000000    -0.186154   
N37      N      0.349460000000     0.017770000000     0.350440000000    -0.188246   
N38      N      0.166040000000     0.004970000000     0.167810000000    -0.192124   
N39      N      0.665970000000     0.005020000000     0.351140000000    -0.19209    
N40      N      0.849520000000     0.017310000000     0.168550000000    -0.187829   
N41      N      0.020670000000     0.167940000000     0.851730000000    -0.188295   
N42      N      0.020860000000     0.350100000000     0.667720000000    -0.188579   
N43      N      0.002970000000     0.667350000000     0.667580000000    -0.185975   
N44      N      0.003070000000     0.850660000000     0.850870000000    -0.18553    
N45      N      0.020480000000     0.666500000000     0.350320000000    -0.188382   
N46      N      0.020690000000     0.850540000000     0.168130000000    -0.18804    
N47      N      0.000520000000     0.166830000000     0.168020000000    -0.196692   
N48      N      0.000610000000     0.350190000000     0.351420000000    -0.196916   
O1       O      0.003960000000     0.145780000000     0.082490000000    -0.62665    
O2       O      0.013420000000     0.871870000000     0.082950000000    -0.570585   
O3       O      0.935110000000     0.014660000000     0.147540000000    -0.608548   
O4       O      0.080500000000     0.006030000000     0.146650000000    -0.625294   
O5       O      0.144840000000     0.006130000000     0.082330000000    -0.629557   
O6       O      0.870920000000     0.012770000000     0.083160000000    -0.571131   
O7       O      0.015300000000     0.936060000000     0.147360000000    -0.608588   
O8       O      0.003960000000     0.081340000000     0.146730000000    -0.625492   
O9       O      0.058340000000     0.959370000000     0.059820000000    -1.46145    
O10      O      0.958230000000     0.059090000000     0.059920000000    -1.46012    
O11      O      0.950230000000     0.950890000000     0.061780000000    -1.05396    
O12      O      0.060060000000     0.061200000000     0.062040000000    -1.62941    
O13      O      0.005870000000     0.871740000000     0.936420000000    -0.563292   
O14      O      0.015240000000     0.146950000000     0.937210000000    -0.609052   
O15      O      0.870770000000     0.935730000000     0.007690000000    -0.564499   
O16      O      0.145890000000     0.936300000000     0.015850000000    -0.610445   
O17      O      0.144830000000     0.081820000000     0.006750000000    -0.627883   
O18      O      0.870910000000     0.082260000000     0.013570000000    -0.572371   
O19      O      0.935230000000     0.008100000000     0.872150000000    -0.56547    
O20      O      0.081750000000     0.013230000000     0.872660000000    -0.572197   
O21      O      0.870820000000     0.007370000000     0.936440000000    -0.563649   
O22      O      0.145940000000     0.015710000000     0.937030000000    -0.610966   
O23      O      0.935170000000     0.871450000000     0.007970000000    -0.563113   
O24      O      0.935040000000     0.146700000000     0.015730000000    -0.609562   
O25      O      0.080450000000     0.146090000000     0.007060000000    -0.625881   
O26      O      0.081650000000     0.871990000000     0.013090000000    -0.570893   
O27      O      0.005930000000     0.936180000000     0.872130000000    -0.565044   
O28      O      0.013410000000     0.082740000000     0.872820000000    -0.572641   
O29      O      0.058270000000     0.059340000000     0.960150000000    -1.46505    
O30      O      0.958440000000     0.959350000000     0.959750000000    -1.35878    
O31      O      0.950260000000     0.061210000000     0.951830000000    -1.05446    
O32      O      0.060330000000     0.951280000000     0.951730000000    -1.05089    
O33      O      0.004120000000     0.371470000000     0.436910000000    -0.627577   
O34      O      0.013260000000     0.645390000000     0.435530000000    -0.571126   
O35      O      0.935090000000     0.502170000000     0.371490000000    -0.610326   
O36      O      0.080290000000     0.511010000000     0.372190000000    -0.627657   
O37      O      0.144730000000     0.511510000000     0.436420000000    -0.631126   
O38      O      0.870910000000     0.504170000000     0.435870000000    -0.573718   
O39      O      0.015120000000     0.581010000000     0.371320000000    -0.611743   
O40      O      0.003970000000     0.435720000000     0.372490000000    -0.627268   
O41      O      0.058240000000     0.558040000000     0.458920000000    -1.47214    
O42      O      0.958290000000     0.458180000000     0.459220000000    -1.46771    
O43      O      0.950150000000     0.566360000000     0.456990000000    -1.05971    
O44      O      0.060090000000     0.456230000000     0.457060000000    -1.63808    
O45      O      0.005760000000     0.646050000000     0.582060000000    -0.565699   
O46      O      0.015450000000     0.370870000000     0.582200000000    -0.612619   
O47      O      0.870720000000     0.581650000000     0.510840000000    -0.567717   
O48      O      0.145830000000     0.581320000000     0.502550000000    -0.615414   
O49      O      0.144930000000     0.436020000000     0.512130000000    -0.632918   
O50      O      0.871020000000     0.434930000000     0.505410000000    -0.572581   
O51      O      0.935140000000     0.509940000000     0.646750000000    -0.564006   
O52      O      0.081820000000     0.504970000000     0.646300000000    -0.57085    
O53      O      0.870780000000     0.510030000000     0.582410000000    -0.568489   
O54      O      0.145990000000     0.502400000000     0.581910000000    -0.614974   
O55      O      0.935080000000     0.645970000000     0.510190000000    -0.563905   
O56      O      0.935270000000     0.370600000000     0.503610000000    -0.609671   
O57      O      0.080650000000     0.371630000000     0.512210000000    -0.627418   
O58      O      0.081560000000     0.645610000000     0.505000000000    -0.569872   
O59      O      0.005860000000     0.581810000000     0.646550000000    -0.567222   
O60      O      0.013520000000     0.435260000000     0.646410000000    -0.572519   
O61      O      0.058360000000     0.458440000000     0.558950000000    -1.47317    
O62      O      0.958380000000     0.558280000000     0.559020000000    -1.36698    
O63      O      0.950340000000     0.456410000000     0.567310000000    -1.05921    
O64      O      0.060280000000     0.566530000000     0.566990000000    -1.05394    
O65      O      0.644730000000     0.006080000000     0.436620000000    -0.628123   
O66      O      0.370850000000     0.013090000000     0.435810000000    -0.570983   
O67      O      0.514890000000     0.936280000000     0.371390000000    -0.609809   
O68      O      0.503630000000     0.081460000000     0.372380000000    -0.627438   
O69      O      0.503870000000     0.145860000000     0.436670000000    -0.630891   
O70      O      0.512820000000     0.871960000000     0.435650000000    -0.573358   
O71      O      0.435030000000     0.014980000000     0.371440000000    -0.61154    
O72      O      0.580410000000     0.006180000000     0.372280000000    -0.626928   
O73      O      0.458290000000     0.059260000000     0.459140000000    -1.47087    
O74      O      0.558170000000     0.959310000000     0.458990000000    -1.46764    
O75      O      0.450090000000     0.951070000000     0.457080000000    -1.05965    
O76      O      0.560000000000     0.061220000000     0.456980000000    -1.63702    
O77      O      0.370750000000     0.007390000000     0.582480000000    -0.565767   
O78      O      0.645840000000     0.015400000000     0.581910000000    -0.611853   
O79      O      0.435010000000     0.871530000000     0.510360000000    -0.568342   
O80      O      0.435170000000     0.146890000000     0.503330000000    -0.61455    
O81      O      0.580580000000     0.145930000000     0.512020000000    -0.631028   
O82      O      0.581530000000     0.871890000000     0.505270000000    -0.573188   
O83      O      0.505530000000     0.935910000000     0.646620000000    -0.564204   
O84      O      0.513010000000     0.082580000000     0.646320000000    -0.571038   
O85      O      0.505270000000     0.871590000000     0.582200000000    -0.568624   
O86      O      0.515070000000     0.146870000000     0.582010000000    -0.614716   
O87      O      0.370650000000     0.935870000000     0.510930000000    -0.563298   
O88      O      0.645750000000     0.936230000000     0.502760000000    -0.609371   
O89      O      0.644820000000     0.081510000000     0.512080000000    -0.627856   
O90      O      0.370940000000     0.082540000000     0.505240000000    -0.57031    
O91      O      0.435160000000     0.007890000000     0.646780000000    -0.567275   
O92      O      0.581680000000     0.012910000000     0.646300000000    -0.572467   
O93      O      0.558220000000     0.059270000000     0.558910000000    -1.47235    
O94      O      0.458380000000     0.959280000000     0.559060000000    -1.36745    
O95      O      0.560180000000     0.951070000000     0.567110000000    -1.05718    
O96      O      0.450220000000     0.061190000000     0.567200000000    -1.05596    
O97      O      0.434870000000     0.371690000000     0.012140000000    -0.627696   
O98      O      0.434380000000     0.645740000000     0.005660000000    -0.57165    
O99      O      0.369700000000     0.502420000000     0.081930000000    -0.610878   
O100     O      0.370940000000     0.511780000000     0.936500000000    -0.624978   
O101     O      0.435360000000     0.511270000000     0.872250000000    -0.63142    
O102     O      0.433850000000     0.504810000000     0.146330000000    -0.573697   
O103     O      0.370010000000     0.581580000000     0.002950000000    -0.611991   
O104     O      0.370650000000     0.436130000000     0.012320000000    -0.62685    
O105     O      0.457570000000     0.558240000000     0.958940000000    -1.46748    
O106     O      0.457310000000     0.458370000000     0.058940000000    -1.47016    
O107     O      0.455500000000     0.566530000000     0.067180000000    -1.05637    
O108     O      0.455520000000     0.456370000000     0.957030000000    -1.63513    
O109     O      0.580860000000     0.645840000000     0.010860000000    -0.564947   
O110     O      0.580280000000     0.370570000000     0.003510000000    -0.612498   
O111     O      0.510180000000     0.581620000000     0.146690000000    -0.568622   
O112     O      0.500940000000     0.581260000000     0.871460000000    -0.614446   
O113     O      0.511900000000     0.436010000000     0.872430000000    -0.631181   
O114     O      0.502440000000     0.434960000000     0.146370000000    -0.573183   
O115     O      0.644880000000     0.509760000000     0.082480000000    -0.566928   
O116     O      0.644770000000     0.504130000000     0.935900000000    -0.570166   
O117     O      0.580520000000     0.509700000000     0.146830000000    -0.567852   
O118     O      0.580590000000     0.502320000000     0.871510000000    -0.614581   
O119     O      0.510560000000     0.645920000000     0.082260000000    -0.565385   
O120     O      0.500290000000     0.370690000000     0.082040000000    -0.611264   
O121     O      0.511560000000     0.371640000000     0.936740000000    -0.625867   
O122     O      0.503070000000     0.645550000000     0.935750000000    -0.568145   
O123     O      0.645110000000     0.581410000000     0.011230000000    -0.566937   
O124     O      0.644560000000     0.434850000000     0.005590000000    -0.57367    
O125     O      0.557340000000     0.458240000000     0.959150000000    -1.47027    
O126     O      0.557390000000     0.558090000000     0.059100000000    -1.37097    
O127     O      0.565270000000     0.456270000000     0.067290000000    -1.06033    
O128     O      0.565630000000     0.566360000000     0.957170000000    -1.054      


