data_structure

_audit_creation_method RASPA-1.0
_audit_creation_date 2023-5-19
_audit_author_name 'Poobodin Mano'

_cell_length_a    26.5531
_cell_length_b    26.7929
_cell_length_c    26.7694
_cell_angle_alpha 90
_cell_angle_beta  90
_cell_angle_gamma 90
_cell_volume      19044.7

_symmetry_cell_setting          triclinic
_symmetry_space_group_name_Hall 'P 1'
_symmetry_space_group_name_H-M  'P 1'
_symmetry_Int_Tables_number     1

_symmetry_equiv_pos_as_xyz 'x,y,z'

loop_
_atom_site_label
_atom_site_type_symbol
_atom_site_fract_x
_atom_site_fract_y
_atom_site_fract_z
_atom_site_charge
C1       C      0.003250000000     0.121440000000     0.122660000000     0.500945   
C2       C      0.008030000000     0.882710000000     0.123760000000     0.502422   
C3       C      0.884260000000     0.013360000000     0.121090000000     0.502534   
C4       C      0.124560000000     0.994420000000     0.125500000000     0.502979   
C5       C      0.009460000000     0.882690000000     0.883700000000     0.493029   
C6       C      0.019810000000     0.122410000000     0.884360000000     0.50405    
C7       C      0.886050000000     0.883630000000     0.993910000000     0.49418    
C8       C      0.127040000000     0.882060000000     0.016640000000     0.504258   
C9       C      0.128110000000     0.120750000000     0.999550000000     0.511215   
C10      C      0.887260000000     0.123310000000     0.010120000000     0.502667   
C11      C      0.889330000000     0.997200000000     0.881010000000     0.494674   
C12      C      0.131090000000     0.012010000000     0.887000000000     0.505323   
C13      C      0.000850000000     0.383680000000     0.384370000000     0.501875   
C14      C      0.019250000000     0.621860000000     0.383480000000     0.50509    
C15      C      0.887750000000     0.494240000000     0.380680000000     0.506419   
C16      C      0.128210000000     0.507460000000     0.386410000000     0.5032     
C17      C      0.998710000000     0.622460000000     0.622830000000     0.502164   
C18      C      0.007360000000     0.382610000000     0.623140000000     0.504099   
C19      C      0.886250000000     0.623810000000     0.506080000000     0.496012   
C20      C      0.128170000000     0.620920000000     0.496630000000     0.505499   
C21      C      0.124460000000     0.382410000000     0.512600000000     0.50424    
C22      C      0.884350000000     0.383960000000     0.490830000000     0.506299   
C23      C      0.882550000000     0.510030000000     0.620560000000     0.496342   
C24      C      0.124040000000     0.491340000000     0.625390000000     0.506266   
C25      C      0.623980000000     0.998030000000     0.381920000000     0.507018   
C26      C      0.383260000000     0.011840000000     0.386840000000     0.503462   
C27      C      0.510700000000     0.883900000000     0.383270000000     0.506308   
C28      C      0.496330000000     0.122140000000     0.385530000000     0.504372   
C29      C      0.389200000000     0.994530000000     0.626800000000     0.495625   
C30      C      0.630620000000     0.013590000000     0.620420000000     0.50511    
C31      C      0.387410000000     0.881710000000     0.512600000000     0.494819   
C32      C      0.384790000000     0.121640000000     0.498470000000     0.505029   
C33      C      0.625700000000     0.122990000000     0.507970000000     0.504727   
C34      C      0.628380000000     0.884650000000     0.489480000000     0.506525   
C35      C      0.510610000000     0.882160000000     0.623340000000     0.493616   
C36      C      0.517860000000     0.122230000000     0.623780000000     0.506489   
C37      C      0.386840000000     0.382690000000     0.013530000000     0.504222   
C38      C      0.384210000000     0.621290000000     0.995880000000     0.503939   
C39      C      0.387800000000     0.492200000000     0.125030000000     0.505157   
C40      C      0.383170000000     0.507950000000     0.886110000000     0.503671   
C41      C      0.626170000000     0.622440000000     0.004710000000     0.494447   
C42      C      0.626910000000     0.382680000000     0.990970000000     0.50436    
C43      C      0.513680000000     0.622330000000     0.121570000000     0.496182   
C44      C      0.493580000000     0.621160000000     0.882160000000     0.504628   
C45      C      0.505720000000     0.382650000000     0.883870000000     0.50313    
C46      C      0.504170000000     0.382600000000     0.122860000000     0.504538   
C47      C      0.629320000000     0.509650000000     0.119560000000     0.495479   
C48      C      0.623380000000     0.491630000000     0.879700000000     0.507685   
C49      C      0.500490000000     0.321290000000     0.249440000000     0.00449452 
C50      C      0.492110000000     0.298320000000     0.336790000000    -0.0413276  
C51      C      0.481320000000     0.210210000000     0.365250000000    -0.00459519 
C52      C      0.488540000000     0.247750000000     0.324000000000     0.00179511 
C53      C      0.479560000000     0.142410000000     0.297800000000    -0.00431287 
C54      C      0.486820000000     0.183120000000     0.259780000000     0.0016281  
C55      C      0.498280000000     0.334540000000     0.300040000000    -0.0425242  
C56      C      0.490680000000     0.233640000000     0.273440000000    -0.00226925 
C57      C      0.488620000000     0.169840000000     0.209200000000    -0.0415426  
C58      C      0.494610000000     0.206080000000     0.172480000000    -0.0423337  
C59      C      0.505140000000     0.293820000000     0.143710000000    -0.00442224 
C60      C      0.498630000000     0.256630000000     0.185280000000     0.00349819 
C61      C      0.508820000000     0.362160000000     0.211810000000    -0.00687567 
C62      C      0.496710000000     0.270800000000     0.235780000000    -0.00317338 
C63      C      0.523210000000     0.747970000000     0.182380000000     0.00547271 
C64      C      0.516760000000     0.835100000000     0.206030000000    -0.0409473  
C65      C      0.512810000000     0.863700000000     0.294340000000    -0.00362011 
C66      C      0.516120000000     0.822180000000     0.256750000000     0.00338139 
C67      C      0.513940000000     0.795220000000     0.362780000000    -0.004927   
C68      C      0.518740000000     0.757860000000     0.321250000000     0.00368344 
C69      C      0.520460000000     0.798520000000     0.169360000000    -0.0419452  
C70      C      0.519120000000     0.771710000000     0.270650000000    -0.00154577 
C71      C      0.522440000000     0.707340000000     0.334260000000    -0.0412276  
C72      C      0.526360000000     0.670780000000     0.297610000000    -0.0417945  
C73      C      0.530870000000     0.642580000000     0.209030000000    -0.00611723 
C74      C      0.526300000000     0.683720000000     0.246930000000     0.00498847 
C75      C      0.529470000000     0.710250000000     0.141240000000    -0.00700082 
C76      C      0.522870000000     0.734220000000     0.233070000000    -0.00299839 
C77      C      0.507270000000     0.820010000000     0.748790000000     0.0060912  
C78      C      0.492160000000     0.796920000000     0.835210000000    -0.0410739  
C79      C      0.475740000000     0.708980000000     0.861970000000    -0.00684473 
C80      C      0.487230000000     0.746620000000     0.821760000000     0.00505845 
C81      C      0.475140000000     0.642030000000     0.794460000000    -0.00505989 
C82      C      0.487010000000     0.682390000000     0.757040000000     0.00428716 
C83      C      0.502410000000     0.833060000000     0.799270000000    -0.0420118  
C84      C      0.492110000000     0.732690000000     0.771310000000    -0.0020894  
C85      C      0.491840000000     0.669320000000     0.706590000000    -0.0410928  
C86      C      0.502050000000     0.705500000000     0.670650000000    -0.042134   
C87      C      0.518530000000     0.793220000000     0.643620000000    -0.0079788  
C88      C      0.507200000000     0.755810000000     0.684090000000     0.00550213 
C89      C      0.520340000000     0.860420000000     0.711900000000    -0.00893479 
C90      C      0.502320000000     0.769750000000     0.734490000000    -0.00327595 
C91      C      0.525690000000     0.247070000000     0.684690000000     0.00472918 
C92      C      0.512690000000     0.333720000000     0.707530000000    -0.0414403  
C93      C      0.497770000000     0.361400000000     0.795250000000    -0.00526631 
C94      C      0.508260000000     0.320650000000     0.758040000000     0.00345563 
C95      C      0.499070000000     0.293800000000     0.863510000000    -0.00546285 
C96      C      0.508840000000     0.256410000000     0.822730000000     0.00355886 
C97      C      0.521720000000     0.297480000000     0.671390000000    -0.0418327  
C98      C      0.512790000000     0.270340000000     0.772250000000    -0.00224991 
C99      C      0.513430000000     0.206020000000     0.836040000000    -0.0414789  
C100     C      0.522000000000     0.169710000000     0.799860000000    -0.0418363  
C101     C      0.535310000000     0.142110000000     0.711690000000    -0.00635372 
C102     C      0.525830000000     0.182780000000     0.749330000000     0.00476024 
C103     C      0.537530000000     0.209510000000     0.644570000000    -0.00543682 
C104     C      0.521540000000     0.233180000000     0.735200000000    -0.00287983 
C105     C      0.758410000000     0.323170000000     0.487980000000     0.00565016 
C106     C      0.672180000000     0.299500000000     0.506510000000    -0.0410043  
C107     C      0.646210000000     0.211240000000     0.522590000000    -0.00494764 
C108     C      0.686120000000     0.249160000000     0.510030000000     0.00197987 
C109     C      0.714850000000     0.144620000000     0.519710000000    -0.00526355 
C110     C      0.751580000000     0.185220000000     0.506190000000     0.00223295 
C111     C      0.707780000000     0.335980000000     0.495300000000    -0.0425241  
C112     C      0.736710000000     0.235490000000     0.502540000000    -0.00203494 
C113     C      0.802130000000     0.172350000000     0.498360000000    -0.0412359  
C114     C      0.837630000000     0.208740000000     0.486650000000    -0.0422095  
C115     C      0.863150000000     0.297030000000     0.469710000000    -0.00562521 
C116     C      0.823650000000     0.259050000000     0.483180000000     0.00480078 
C117     C      0.795310000000     0.363690000000     0.474370000000    -0.00758239 
C118     C      0.773120000000     0.272780000000     0.491100000000    -0.00357629 
C119     C      0.760680000000     0.686070000000     0.504710000000     0.00607589 
C120     C      0.674360000000     0.709420000000     0.486190000000    -0.0414494  
C121     C      0.648660000000     0.797480000000     0.468380000000    -0.00721375 
C122     C      0.688400000000     0.759610000000     0.481500000000     0.00532198 
C123     C      0.716760000000     0.863960000000     0.470230000000    -0.00564561 
C124     C      0.753930000000     0.823630000000     0.483680000000     0.00497737 
C125     C      0.709970000000     0.673190000000     0.498060000000    -0.0418118  
C126     C      0.739090000000     0.773380000000     0.488330000000    -0.00228863 
C127     C      0.804580000000     0.836560000000     0.490590000000    -0.0409484  
C128     C      0.840200000000     0.800270000000     0.502360000000    -0.0415542  
C129     C      0.866130000000     0.712270000000     0.519990000000    -0.00746551 
C130     C      0.826210000000     0.750040000000     0.506990000000     0.00591671 
C131     C      0.797360000000     0.645840000000     0.519400000000    -0.00782844 
C132     C      0.775540000000     0.736270000000     0.500140000000    -0.00290784 
C133     C      0.249990000000     0.320330000000     0.514380000000     0.00268779 
C134     C      0.336490000000     0.297040000000     0.496680000000    -0.0419015  
C135     C      0.362760000000     0.208910000000     0.480400000000    -0.00487139 
C136     C      0.322810000000     0.246640000000     0.493280000000     0.0041658  
C137     C      0.295210000000     0.141500000000     0.486170000000    -0.00675216 
C138     C      0.257830000000     0.182270000000     0.497610000000     0.00465249 
C139     C      0.300650000000     0.333340000000     0.507620000000    -0.041699   
C140     C      0.272260000000     0.232720000000     0.500560000000    -0.0030533  
C141     C      0.207190000000     0.169270000000     0.504590000000    -0.0423177  
C142     C      0.171170000000     0.205700000000     0.514650000000    -0.0415775  
C143     C      0.144260000000     0.294130000000     0.528300000000    -0.00595737 
C144     C      0.184760000000     0.256160000000     0.517680000000     0.00254327 
C145     C      0.213030000000     0.360560000000     0.528390000000    -0.00585805 
C146     C      0.235460000000     0.269950000000     0.511020000000    -0.00268864 
C147     C      0.189100000000     0.745940000000     0.494470000000     0.00538292 
C148     C      0.210980000000     0.832190000000     0.511600000000    -0.0416832  
C149     C      0.299140000000     0.859650000000     0.529570000000    -0.00768156 
C150     C      0.261870000000     0.819300000000     0.516720000000     0.00614543 
C151     C      0.367850000000     0.793260000000     0.527790000000    -0.00791503 
C152     C      0.327630000000     0.755540000000     0.515560000000     0.00609219 
C153     C      0.175140000000     0.796060000000     0.500140000000    -0.0412491  
C154     C      0.276710000000     0.769230000000     0.510730000000    -0.00302107 
C155     C      0.341570000000     0.705420000000     0.509680000000    -0.0419563  
C156     C      0.305620000000     0.669200000000     0.498730000000    -0.040982   
C157     C      0.217250000000     0.641480000000     0.481760000000    -0.00507758 
C158     C      0.254710000000     0.682040000000     0.493780000000     0.00423875 
C159     C      0.149490000000     0.708650000000     0.479620000000    -0.00717351 
C160     C      0.239960000000     0.732190000000     0.499550000000    -0.00208917 
C161     C      0.755850000000     0.510100000000     0.180240000000     0.00588601 
C162     C      0.842130000000     0.491710000000     0.204070000000    -0.0410703  
C163     C      0.867970000000     0.475950000000     0.292660000000    -0.00531919 
C164     C      0.828170000000     0.488340000000     0.254460000000     0.00439231 
C165     C      0.799260000000     0.478220000000     0.358830000000    -0.00634745 
C166     C      0.762570000000     0.492110000000     0.318350000000     0.0050226  
C167     C      0.806510000000     0.502710000000     0.167490000000    -0.0419707  
C168     C      0.777520000000     0.495800000000     0.268050000000    -0.00213922 
C169     C      0.712060000000     0.500050000000     0.331230000000    -0.0413361  
C170     C      0.676660000000     0.511930000000     0.294810000000    -0.0418731  
C171     C      0.651280000000     0.529030000000     0.206580000000    -0.00737493 
C172     C      0.690700000000     0.515330000000     0.244470000000     0.00564885 
C173     C      0.718910000000     0.523140000000     0.139470000000    -0.00821355 
C174     C      0.741160000000     0.507220000000     0.230690000000    -0.00310934 
C175     C      0.190080000000     0.507640000000     0.261400000000     0.00244608 
C176     C      0.212110000000     0.490670000000     0.175080000000    -0.0421392  
C177     C      0.300320000000     0.472380000000     0.147910000000    -0.00526872 
C178     C      0.262990000000     0.485750000000     0.188040000000     0.00460554 
C179     C      0.369300000000     0.476600000000     0.213820000000    -0.00738321 
C180     C      0.328790000000     0.487580000000     0.251780000000     0.00534718 
C181     C      0.176220000000     0.502060000000     0.211190000000    -0.0415907  
C182     C      0.277780000000     0.491870000000     0.238140000000    -0.00329041 
C183     C      0.342590000000     0.493170000000     0.302010000000    -0.0422399  
C184     C      0.306450000000     0.503300000000     0.338360000000    -0.0412156  
C185     C      0.217880000000     0.518860000000     0.366330000000    -0.00558987 
C186     C      0.255490000000     0.507930000000     0.325510000000     0.00223148 
C187     C      0.150350000000     0.522470000000     0.298570000000    -0.00564775 
C188     C      0.240900000000     0.502600000000     0.275250000000    -0.00235512 
C189     C      0.182970000000     0.486790000000     0.751740000000     0.00586877 
C190     C      0.205190000000     0.502880000000     0.838270000000    -0.0411301  
C191     C      0.293540000000     0.520160000000     0.866010000000    -0.00594927 
C192     C      0.256050000000     0.508300000000     0.825340000000     0.00241762 
C193     C      0.361120000000     0.523370000000     0.798360000000    -0.00506404 
C194     C      0.321380000000     0.508860000000     0.761090000000     0.00222342 
C195     C      0.169170000000     0.492080000000     0.802000000000    -0.0423813  
C196     C      0.270680000000     0.502970000000     0.775070000000    -0.00218098 
C197     C      0.335350000000     0.502830000000     0.710960000000    -0.0413372  
C198     C      0.299600000000     0.490690000000     0.674960000000    -0.0421071  
C199     C      0.211560000000     0.471240000000     0.648000000000    -0.00537948 
C200     C      0.248800000000     0.485230000000     0.687990000000     0.00497453 
C201     C      0.142770000000     0.474270000000     0.713960000000    -0.00818224 
C202     C      0.233940000000     0.491510000000     0.738070000000    -0.00349042 
C203     C      0.820790000000     0.512070000000     0.745010000000     0.00633685 
C204     C      0.798960000000     0.493910000000     0.831110000000    -0.041124   
C205     C      0.711270000000     0.472460000000     0.857620000000    -0.00694552 
C206     C      0.748370000000     0.487230000000     0.817830000000     0.00567351 
C207     C      0.642750000000     0.473850000000     0.791430000000    -0.00559017 
C208     C      0.682830000000     0.486900000000     0.753710000000     0.00479729 
C209     C      0.834610000000     0.506710000000     0.795250000000    -0.041727   
C210     C      0.733580000000     0.493080000000     0.767680000000    -0.00220175 
C211     C      0.669030000000     0.492440000000     0.703480000000    -0.041133   
C212     C      0.704900000000     0.504370000000     0.667440000000    -0.041782   
C213     C      0.793030000000     0.523700000000     0.640270000000    -0.00745428 
C214     C      0.755590000000     0.510770000000     0.680610000000     0.00565564 
C215     C      0.860170000000     0.527960000000     0.707930000000    -0.00817489 
C216     C      0.770180000000     0.505450000000     0.730890000000    -0.0029844  
C217     C      0.760140000000     0.822350000000     0.989290000000     0.00377695 
C218     C      0.673340000000     0.798750000000     0.004950000000    -0.0484229  
C219     C      0.646750000000     0.710510000000     0.019600000000    -0.0124289  
C220     C      0.687070000000     0.748360000000     0.008420000000     0.00887465 
C221     C      0.715210000000     0.643520000000     0.017310000000    -0.00991915 
C222     C      0.752430000000     0.684260000000     0.005780000000     0.00174222 
C223     C      0.709330000000     0.835220000000     0.995120000000    -0.0349162  
C224     C      0.737820000000     0.734620000000     0.002310000000    -0.00695571 
C225     C      0.803170000000     0.671350000000     0.999520000000    -0.0323806  
C226     C      0.839140000000     0.707790000000     0.989630000000    -0.043844   
C227     C      0.865730000000     0.796120000000     0.975540000000    -0.00794943 
C228     C      0.825410000000     0.758170000000     0.986330000000     0.00637063 
C229     C      0.797400000000     0.862890000000     0.976980000000    -0.00715975 
C230     C      0.774670000000     0.771940000000     0.992510000000     0.00180446 
C231     C      0.761180000000     0.184390000000     0.009310000000     0.00963546 
C232     C      0.674840000000     0.207130000000     0.989980000000    -0.0339499  
C233     C      0.648250000000     0.295090000000     0.972760000000    -0.0044585  
C234     C      0.688380000000     0.257520000000     0.985940000000     0.000863691
C235     C      0.716040000000     0.362190000000     0.975710000000    -0.00533413 
C236     C      0.753270000000     0.322050000000     0.989540000000     0.00142064 
C237     C      0.710670000000     0.171110000000     0.001910000000    -0.0493144  
C238     C      0.738860000000     0.271670000000     0.993550000000     0.00548454 
C239     C      0.803710000000     0.335370000000     0.997310000000    -0.0338561  
C240     C      0.839550000000     0.299330000000     0.009240000000    -0.0487776  
C241     C      0.866210000000     0.211340000000     0.026250000000    -0.0079472  
C242     C      0.826040000000     0.248920000000     0.013160000000     0.00914937 
C243     C      0.798120000000     0.144420000000     0.024220000000    -0.00944049 
C244     C      0.775570000000     0.234780000000     0.005480000000    -0.0106205  
C245     C      0.323950000000     0.746520000000     0.995610000000     0.0211532  
C246     C      0.302750000000     0.832530000000     0.014920000000    -0.0339974  
C247     C      0.215010000000     0.859730000000     0.035840000000    -0.00366919 
C248     C      0.251980000000     0.819680000000     0.021100000000    -0.000831026
C249     C      0.146280000000     0.793820000000     0.034210000000    -0.0056053  
C250     C      0.185980000000     0.756100000000     0.020320000000    -0.000276486
C251     C      0.338180000000     0.796510000000     0.001870000000    -0.0566498  
C252     C      0.236840000000     0.769740000000     0.014490000000     0.00530621 
C253     C      0.171730000000     0.706150000000     0.013840000000    -0.0349326  
C254     C      0.207270000000     0.670040000000     0.001270000000    -0.0557683  
C255     C      0.295120000000     0.642470000000     0.981460000000    -0.00670178 
C256     C      0.258090000000     0.682840000000     0.995290000000     0.0189507  
C257     C      0.363120000000     0.709290000000     0.979380000000    -0.0131694  
C258     C      0.273170000000     0.732830000000     0.001670000000    -0.0185616  
C259     C      0.254330000000     0.182480000000     0.000440000000    -0.00264826 
C260     C      0.340870000000     0.206370000000     0.017300000000    -0.0434588  
C261     C      0.367070000000     0.294880000000     0.031570000000    -0.00611938 
C262     C      0.326940000000     0.256710000000     0.020530000000     0.00278986 
C263     C      0.298340000000     0.361220000000     0.029960000000    -0.00606907 
C264     C      0.261340000000     0.320570000000     0.017390000000     0.00348422 
C265     C      0.305090000000     0.169780000000     0.007070000000    -0.0405227  
C266     C      0.276190000000     0.270270000000     0.013900000000    -0.00433514 
C267     C      0.210670000000     0.333350000000     0.010410000000    -0.0474248  
C268     C      0.175020000000     0.296830000000     0.999690000000    -0.0368058  
C269     C      0.149070000000     0.208590000000     0.984140000000    -0.000188483
C270     C      0.188980000000     0.246500000000     0.996380000000     0.00281952 
C271     C      0.217460000000     0.141710000000     0.987630000000     0.00249965 
C272     C      0.239610000000     0.232850000000     0.003460000000    -0.00439167 
C273     C      0.829950000000     0.995680000000     0.754540000000     0.0217936  
C274     C      0.808070000000     0.011860000000     0.667920000000    -0.0335781  
C275     C      0.719810000000     0.029920000000     0.640130000000    -0.00314236 
C276     C      0.757260000000     0.017770000000     0.680770000000    -0.00185314 
C277     C      0.652450000000     0.033910000000     0.707390000000    -0.00463612 
C278     C      0.691790000000     0.019070000000     0.744910000000    -0.000994968
C279     C      0.843890000000     0.000730000000     0.704280000000    -0.0571384  
C280     C      0.742500000000     0.012710000000     0.731050000000     0.00615554 
C281     C      0.677650000000     0.013390000000     0.795010000000    -0.0339162  
C282     C      0.713250000000     0.001220000000     0.831140000000    -0.0570222  
C283     C      0.801010000000     0.981680000000     0.858550000000    -0.00868015 
C284     C      0.764050000000     0.995310000000     0.818230000000     0.0213664  
C285     C      0.869910000000     0.982450000000     0.792290000000    -0.00996379 
C286     C      0.779050000000     0.001080000000     0.768150000000    -0.0197067  
C287     C      0.330270000000     0.992070000000     0.753160000000     0.00117082 
C288     C      0.308520000000     0.009090000000     0.839630000000    -0.0492462  
C289     C      0.220370000000     0.027770000000     0.867260000000    -0.00735854 
C290     C      0.257730000000     0.015140000000     0.826730000000     0.00876184 
C291     C      0.153090000000     0.031890000000     0.799960000000    -0.00862915 
C292     C      0.192250000000     0.016260000000     0.762580000000     0.00936335 
C293     C      0.344280000000     0.997490000000     0.803360000000    -0.0332438  
C294     C      0.242910000000     0.009700000000     0.776500000000    -0.0108232  
C295     C      0.178030000000     0.010110000000     0.712560000000    -0.0494296  
C296     C      0.213530000000     0.997280000000     0.676560000000    -0.0337898  
C297     C      0.301240000000     0.976920000000     0.649430000000    -0.00558928 
C298     C      0.264290000000     0.991240000000     0.689510000000     0.00170762 
C299     C      0.370140000000     0.978520000000     0.715440000000    -0.00234824 
C300     C      0.279370000000     0.997500000000     0.739530000000     0.00576817 
C301     C      0.183820000000     0.991530000000     0.252210000000    -0.000560657
C302     C      0.205540000000     0.005830000000     0.339210000000    -0.0494194  
C303     C      0.293440000000     0.024720000000     0.367480000000    -0.00852449 
C304     C      0.256220000000     0.013050000000     0.326490000000     0.00773548 
C305     C      0.360590000000     0.032460000000     0.300150000000    -0.00537221 
C306     C      0.321500000000     0.017520000000     0.262350000000     0.0041059  
C307     C      0.169860000000     0.995060000000     0.302600000000    -0.0339973  
C308     C      0.270990000000     0.009640000000     0.276090000000    -0.00808867 
C309     C      0.335670000000     0.013310000000     0.212100000000    -0.0393704  
C310     C      0.300320000000     0.001030000000     0.175750000000    -0.0518316  
C311     C      0.213030000000     0.979570000000     0.148090000000    -0.0072265  
C312     C      0.249690000000     0.993660000000     0.188550000000     0.00783931 
C313     C      0.143900000000     0.978950000000     0.214140000000    -0.00128886 
C314     C      0.234610000000     0.998130000000     0.238740000000     0.00175192 
C315     C      0.684100000000     0.996740000000     0.255300000000     0.0172294  
C316     C      0.706480000000     0.010760000000     0.168420000000    -0.0353305  
C317     C      0.794810000000     0.028230000000     0.140580000000    -0.00524608 
C318     C      0.757240000000     0.017030000000     0.181360000000    -0.000581015
C319     C      0.862220000000     0.033350000000     0.208050000000    -0.00434372 
C320     C      0.822360000000     0.020060000000     0.245730000000     0.000230067
C321     C      0.670450000000     0.000550000000     0.204860000000    -0.0562711  
C322     C      0.771720000000     0.013310000000     0.231800000000     0.00381272 
C323     C      0.836170000000     0.015760000000     0.296060000000    -0.037499   
C324     C      0.800370000000     0.004400000000     0.332280000000    -0.05041    
C325     C      0.712650000000     0.984720000000     0.359660000000    -0.00500617 
C326     C      0.749670000000     0.997960000000     0.319250000000     0.0151128  
C327     C      0.643790000000     0.984510000000     0.293100000000    -0.00717457 
C328     C      0.734930000000     0.002550000000     0.269010000000    -0.0175597  
C329     C      0.028310000000     0.247310000000     0.823290000000     0.00427849 
C330     C      0.016280000000     0.333990000000     0.800000000000    -0.0426204  
C331     C      0.003530000000     0.361750000000     0.712040000000    -0.010407   
C332     C      0.012840000000     0.320860000000     0.749430000000     0.00544735 
C333     C      0.006020000000     0.293720000000     0.643720000000    -0.00859645 
C334     C      0.014550000000     0.256510000000     0.684900000000     0.00480384 
C335     C      0.024320000000     0.297770000000     0.836400000000    -0.0413418  
C336     C      0.017410000000     0.270520000000     0.735410000000    -0.00335334 
C337     C      0.019310000000     0.206090000000     0.671790000000    -0.0424233  
C338     C      0.026850000000     0.169810000000     0.708200000000    -0.0415367  
C339     C      0.037900000000     0.142230000000     0.796630000000    -0.00618077 
C340     C      0.029540000000     0.182930000000     0.758770000000     0.00413743 
C341     C      0.039240000000     0.209790000000     0.863740000000    -0.0056073  
C342     C      0.025160000000     0.233370000000     0.772720000000    -0.00234705 
C343     C      0.006500000000     0.756980000000     0.822130000000     0.0110421  
C344     C      0.992350000000     0.670570000000     0.798830000000    -0.0332082  
C345     C      0.980830000000     0.643220000000     0.710360000000    -0.000539748
C346     C      0.990150000000     0.683710000000     0.748220000000    -0.000343524
C347     C      0.983630000000     0.710600000000     0.642900000000    -0.000661633
C348     C      0.993450000000     0.748020000000     0.683670000000    -0.000153976
C349     C      0.000760000000     0.706670000000     0.835250000000    -0.050016   
C350     C      0.995880000000     0.734000000000     0.734250000000     0.00644152 
C351     C      0.999110000000     0.798320000000     0.670520000000    -0.0332338  
C352     C      0.007520000000     0.834390000000     0.706960000000    -0.0498338  
C353     C      0.019370000000     0.861890000000     0.795180000000    -0.0136111  
C354     C      0.009990000000     0.821230000000     0.757560000000     0.0108287  
C355     C      0.017580000000     0.793970000000     0.862950000000    -0.0141446  
C356     C      0.004230000000     0.770990000000     0.771570000000    -0.011788   
C357     C      0.013710000000     0.756790000000     0.185150000000     0.00614154 
C358     C      0.027540000000     0.670170000000     0.208030000000    -0.0410361  
C359     C      0.040120000000     0.642590000000     0.296400000000    -0.0048047  
C360     C      0.030340000000     0.683140000000     0.258650000000     0.00372786 
C361     C      0.037840000000     0.709560000000     0.363920000000    -0.00633193 
C362     C      0.028030000000     0.747270000000     0.323430000000     0.00444966 
C363     C      0.018960000000     0.706460000000     0.171820000000    -0.0429715  
C364     C      0.025080000000     0.733450000000     0.272810000000    -0.0019475  
C365     C      0.023060000000     0.797570000000     0.336790000000    -0.0411753  
C366     C      0.014840000000     0.833860000000     0.300530000000    -0.0424538  
C367     C      0.002960000000     0.861920000000     0.212570000000    -0.00936949 
C368     C      0.011750000000     0.820890000000     0.249910000000     0.00549998 
C369     C      0.002260000000     0.793890000000     0.144540000000    -0.01144    
C370     C      0.016720000000     0.770630000000     0.235690000000    -0.00376377 
C371     C      0.002270000000     0.247680000000     0.184410000000    -0.00125189 
C372     C      0.995970000000     0.334940000000     0.207790000000    -0.0378843  
C373     C      0.988440000000     0.363380000000     0.296100000000    -0.000380946
C374     C      0.993700000000     0.322060000000     0.258450000000     0.00157923 
C375     C      0.987320000000     0.295630000000     0.364120000000    -0.00112038 
C376     C      0.992890000000     0.257790000000     0.323030000000     0.00405443 
C377     C      0.000450000000     0.298270000000     0.171300000000    -0.0452044  
C378     C      0.995470000000     0.271520000000     0.272420000000    -0.00499277 
C379     C      0.994430000000     0.207200000000     0.336150000000    -0.0459971  
C380     C      0.998840000000     0.170540000000     0.299650000000    -0.030789   
C381     C      0.006340000000     0.141930000000     0.211520000000    -0.00449002 
C382     C      0.001490000000     0.183410000000     0.248990000000    -0.00804716 
C383     C      0.008620000000     0.210140000000     0.143170000000    -0.00731418 
C384     C      0.999830000000     0.233920000000     0.235000000000     0.00641155 
Eu1      Eu     0.004480000000     0.001640000000     0.091940000000     3.47181    
Eu2      Eu     0.006720000000     0.913570000000     0.003630000000     3.03524    
Eu3      Eu     0.007060000000     0.090750000000     0.002810000000     3.48423    
Eu4      Eu     0.917320000000     0.003150000000     0.001630000000     3.02465    
Eu5      Eu     0.096590000000     0.001020000000     0.004900000000     3.48051    
Eu6      Eu     0.009400000000     0.002570000000     0.914550000000     3.05361    
Eu7      Eu     0.006740000000     0.503450000000     0.414920000000     3.48968    
Eu8      Eu     0.006730000000     0.591610000000     0.503190000000     3.05222    
Eu9      Eu     0.004020000000     0.414430000000     0.504150000000     3.50025    
Eu10     Eu     0.915810000000     0.503650000000     0.501350000000     3.08757    
Eu11     Eu     0.095010000000     0.502500000000     0.505940000000     3.50684    
Eu12     Eu     0.003930000000     0.502680000000     0.592390000000     3.05749    
Eu13     Eu     0.503720000000     0.002370000000     0.415660000000     3.49232    
Eu14     Eu     0.416810000000     0.001880000000     0.506220000000     3.03072    
Eu15     Eu     0.595920000000     0.002870000000     0.502500000000     3.48553    
Eu16     Eu     0.507600000000     0.913790000000     0.503540000000     3.07687    
Eu17     Eu     0.505060000000     0.091110000000     0.505200000000     3.53289    
Eu18     Eu     0.509040000000     0.002360000000     0.593090000000     3.04993    
Eu19     Eu     0.416690000000     0.502700000000     0.005520000000     3.47105    
Eu20     Eu     0.505450000000     0.591140000000     0.002090000000     3.04233    
Eu21     Eu     0.507200000000     0.413920000000     0.003680000000     3.48961    
Eu22     Eu     0.507910000000     0.502540000000     0.091590000000     3.08177    
Eu23     Eu     0.504640000000     0.502630000000     0.914140000000     3.52291    
Eu24     Eu     0.595870000000     0.502490000000     0.000350000000     3.05325    
H1       H      0.957860000000     0.956980000000     0.085070000000    -0.175851   
H2       H      0.079800000000     0.073950000000     0.077470000000     0.408542   
H3       H      0.961890000000     0.085590000000     0.956130000000    -0.171847   
H4       H      0.091870000000     0.955360000000     0.958940000000    -0.165066   
H5       H      0.961010000000     0.549630000000     0.419390000000    -0.171803   
H6       H      0.079620000000     0.429390000000     0.432420000000     0.409066   
H7       H      0.956790000000     0.420680000000     0.548370000000    -0.177629   
H8       H      0.088880000000     0.548210000000     0.551570000000    -0.177204   
H9       H      0.458040000000     0.956720000000     0.422370000000    -0.178064   
H10      H      0.577300000000     0.076260000000     0.429980000000     0.409538   
H11      H      0.592150000000     0.956810000000     0.548160000000    -0.166309   
H12      H      0.460220000000     0.084810000000     0.552000000000    -0.182893   
H13      H      0.423170000000     0.548560000000     0.050960000000    -0.171462   
H14      H      0.430830000000     0.429490000000     0.932620000000     0.409939   
H15      H      0.554530000000     0.420060000000     0.047790000000    -0.178566   
H16      H      0.550860000000     0.548420000000     0.918300000000    -0.178733   
H17      H      0.503600000000     0.110010000000     0.287290000000     0.0375037  
H18      H      0.547200000000     0.377810000000     0.217500000000     0.0387558  
H19      H      0.442240000000     0.214000000000     0.379600000000     0.0359201  
H20      H      0.475690000000     0.286760000000     0.114940000000     0.040443   
H21      H      0.501420000000     0.373310000000     0.311170000000     0.034246   
H22      H      0.490210000000     0.309820000000     0.375550000000     0.0333792  
H23      H      0.506430000000     0.220220000000     0.397020000000     0.0374771  
H24      H      0.481710000000     0.392900000000     0.219680000000     0.040924   
H25      H      0.485300000000     0.131080000000     0.198070000000     0.0327943  
H26      H      0.440050000000     0.129020000000     0.295120000000     0.0357856  
H27      H      0.496020000000     0.194620000000     0.133680000000     0.0332964  
H28      H      0.541570000000     0.286150000000     0.124680000000     0.0364603  
H29      H      0.545370000000     0.789270000000     0.389680000000     0.0390849  
H30      H      0.568430000000     0.713280000000     0.126390000000     0.0358084  
H31      H      0.478150000000     0.885790000000     0.286670000000     0.0387854  
H32      H      0.505380000000     0.611490000000     0.220090000000     0.0422469  
H33      H      0.521440000000     0.809750000000     0.130480000000     0.034327   
H34      H      0.514710000000     0.873900000000     0.194780000000     0.0343473  
H35      H      0.544510000000     0.890070000000     0.287690000000     0.0399859  
H36      H      0.503370000000     0.720150000000     0.110230000000     0.0424127  
H37      H      0.522280000000     0.696140000000     0.373170000000     0.0340547  
H38      H      0.479120000000     0.786690000000     0.384290000000     0.0396289  
H39      H      0.529350000000     0.632030000000     0.308870000000     0.034253   
H40      H      0.569670000000     0.627150000000     0.211130000000     0.0356365  
H41      H      0.496160000000     0.607580000000     0.784220000000     0.0416614  
H42      H      0.560440000000     0.871000000000     0.717430000000     0.0392582  
H43      H      0.435290000000     0.712660000000     0.871940000000     0.0349169  
H44      H      0.494000000000     0.785090000000     0.610880000000     0.0419593  
H45      H      0.506630000000     0.871560000000     0.810930000000     0.0353518  
H46      H      0.488240000000     0.808260000000     0.873870000000     0.0349074  
H47      H      0.497290000000     0.718920000000     0.896210000000     0.0432365  
H48      H      0.497200000000     0.893960000000     0.720640000000     0.0430368  
H49      H      0.487670000000     0.630810000000     0.694940000000     0.0340709  
H50      H      0.434520000000     0.632690000000     0.790970000000     0.0351695  
H51      H      0.505850000000     0.694180000000     0.631970000000     0.0345322  
H52      H      0.557780000000     0.787020000000     0.630550000000     0.0384272  
H53      H      0.524850000000     0.285690000000     0.895320000000     0.0417582  
H54      H      0.578330000000     0.212170000000     0.635750000000     0.0354388  
H55      H      0.458520000000     0.374680000000     0.789510000000     0.0306826  
H56      H      0.512130000000     0.108970000000     0.721720000000     0.0419219  
H57      H      0.525610000000     0.308850000000     0.632730000000     0.0340535  
H58      H      0.509270000000     0.372360000000     0.696030000000     0.0336902  
H59      H      0.522350000000     0.393930000000     0.786480000000     0.041559   
H60      H      0.516400000000     0.219790000000     0.610170000000     0.042268   
H61      H      0.510350000000     0.194730000000     0.874790000000     0.0340465  
H62      H      0.460390000000     0.287570000000     0.878160000000     0.0309172  
H63      H      0.525580000000     0.131090000000     0.811340000000     0.0341052  
H64      H      0.575210000000     0.130240000000     0.715280000000     0.034756   
H65      H      0.720880000000     0.134760000000     0.559590000000     0.0360156  
H66      H      0.786160000000     0.397740000000     0.496380000000     0.0427019  
H67      H      0.611140000000     0.220760000000     0.501890000000     0.0384293  
H68      H      0.869500000000     0.294730000000     0.428750000000     0.034992   
H69      H      0.695750000000     0.374510000000     0.492350000000     0.034419   
H70      H      0.633380000000     0.310610000000     0.512360000000     0.0334312  
H71      H      0.636930000000     0.215100000000     0.562870000000     0.0357039  
H72      H      0.790050000000     0.372950000000     0.434260000000     0.0346407  
H73      H      0.814180000000     0.133820000000     0.501310000000     0.0335034  
H74      H      0.724090000000     0.110500000000     0.497840000000     0.0384554  
H75      H      0.876340000000     0.197580000000     0.480340000000     0.0341515  
H76      H      0.899390000000     0.286450000000     0.487690000000     0.042655   
H77      H      0.720970000000     0.872050000000     0.429740000000     0.0357136  
H78      H      0.787990000000     0.611310000000     0.498240000000     0.0433396  
H79      H      0.612880000000     0.787220000000     0.487400000000     0.0427947  
H80      H      0.875610000000     0.716730000000     0.560180000000     0.0353796  
H81      H      0.697870000000     0.634770000000     0.502100000000     0.0344818  
H82      H      0.635510000000     0.698250000000     0.480850000000     0.0342144  
H83      H      0.641180000000     0.794640000000     0.427620000000     0.0360724  
H84      H      0.792020000000     0.637490000000     0.559730000000     0.035302   
H85      H      0.816630000000     0.875020000000     0.486840000000     0.035037   
H86      H      0.726880000000     0.898900000000     0.490330000000     0.0424365  
H87      H      0.879040000000     0.811440000000     0.507770000000     0.0352831  
H88      H      0.901090000000     0.721390000000     0.498940000000     0.0436906  
H89      H      0.289310000000     0.129460000000     0.446880000000     0.0347174  
H90      H      0.222790000000     0.395130000000     0.507470000000     0.0390052  
H91      H      0.398500000000     0.219510000000     0.499360000000     0.0417978  
H92      H      0.132900000000     0.290380000000     0.568110000000     0.0373557  
H93      H      0.312520000000     0.371910000000     0.510770000000     0.0335099  
H94      H      0.375250000000     0.308340000000     0.490980000000     0.0339057  
H95      H      0.370230000000     0.211600000000     0.439650000000     0.0350039  
H96      H      0.217620000000     0.368800000000     0.568820000000     0.0359496  
H97      H      0.195440000000     0.130620000000     0.502160000000     0.0337319  
H98      H      0.286460000000     0.108440000000     0.509790000000     0.0418052  
H99      H      0.132330000000     0.194470000000     0.519950000000     0.0332465  
H100     H      0.110280000000     0.284550000000     0.505920000000     0.0382649  
H101     H      0.402340000000     0.784180000000     0.505980000000     0.0429608  
H102     H      0.142740000000     0.712580000000     0.438880000000     0.0349746  
H103     H      0.295290000000     0.868180000000     0.570020000000     0.035344   
H104     H      0.226850000000     0.607550000000     0.503770000000     0.0414154  
H105     H      0.136210000000     0.807300000000     0.495610000000     0.0343758  
H106     H      0.198970000000     0.870560000000     0.516260000000     0.0348505  
H107     H      0.288610000000     0.894420000000     0.509360000000     0.0433499  
H108     H      0.113750000000     0.718230000000     0.499100000000     0.0431452  
H109     H      0.380600000000     0.694280000000     0.513570000000     0.0346514  
H110     H      0.378220000000     0.788720000000     0.567770000000     0.0370401  
H111     H      0.317590000000     0.630800000000     0.494160000000     0.0341066  
H112     H      0.222030000000     0.631070000000     0.441840000000     0.0355119  
H113     H      0.794200000000     0.437900000000     0.367120000000     0.0346397  
H114     H      0.727430000000     0.499930000000     0.106040000000     0.0423896  
H115     H      0.903370000000     0.495920000000     0.282880000000     0.0423206  
H116     H      0.645010000000     0.569960000000     0.208980000000     0.0347855  
H117     H      0.818530000000     0.505430000000     0.128900000000     0.0343969  
H118     H      0.880940000000     0.485850000000     0.193010000000     0.0343359  
H119     H      0.876470000000     0.435470000000     0.289570000000     0.035327   
H120     H      0.724770000000     0.562820000000     0.128840000000     0.0352204  
H121     H      0.699960000000     0.497060000000     0.369780000000     0.0342066  
H122     H      0.789220000000     0.498630000000     0.393640000000     0.042658   
H123     H      0.637970000000     0.518390000000     0.305970000000     0.0341656  
H124     H      0.615020000000     0.511160000000     0.217270000000     0.0430157  
H125     H      0.381090000000     0.437050000000     0.218430000000     0.0364636  
H126     H      0.114760000000     0.502750000000     0.288930000000     0.0393112  
H127     H      0.289100000000     0.490870000000     0.112390000000     0.0417805  
H128     H      0.223440000000     0.558050000000     0.378790000000     0.0361425  
H129     H      0.137290000000     0.506520000000     0.199890000000     0.0330879  
H130     H      0.200130000000     0.485880000000     0.136680000000     0.0335182  
H131     H      0.297480000000     0.431550000000     0.141160000000     0.034962   
H132     H      0.143250000000     0.563120000000     0.294440000000     0.0358647  
H133     H      0.381670000000     0.489670000000     0.313150000000     0.0344893  
H134     H      0.403060000000     0.499580000000     0.222650000000     0.0424946  
H135     H      0.318320000000     0.507520000000     0.376860000000     0.0336187  
H136     H      0.226750000000     0.495100000000     0.399290000000     0.0375511  
H137     H      0.368280000000     0.564020000000     0.794220000000     0.0358077  
H138     H      0.108530000000     0.496560000000     0.722730000000     0.0430143  
H139     H      0.284620000000     0.497170000000     0.899500000000     0.0382464  
H140     H      0.214680000000     0.430380000000     0.641590000000     0.0351937  
H141     H      0.130190000000     0.487880000000     0.813220000000     0.0345276  
H142     H      0.193310000000     0.507010000000     0.876780000000     0.0339062  
H143     H      0.287980000000     0.559640000000     0.877490000000     0.0361829  
H144     H      0.132680000000     0.434230000000     0.718260000000     0.0366645  
H145     H      0.374240000000     0.507520000000     0.699640000000     0.0334137  
H146     H      0.396980000000     0.504310000000     0.788410000000     0.0394524  
H147     H      0.311630000000     0.485690000000     0.636600000000     0.0341042  
H148     H      0.222600000000     0.489550000000     0.612330000000     0.0421578  
H149     H      0.633690000000     0.433550000000     0.787280000000     0.0372755  
H150     H      0.896460000000     0.509790000000     0.717980000000     0.0440733  
H151     H      0.721870000000     0.490750000000     0.893410000000     0.0433653  
H152     H      0.787440000000     0.563480000000     0.629870000000     0.0349679  
H153     H      0.873320000000     0.512390000000     0.806750000000     0.0350146  
H154     H      0.810890000000     0.489350000000     0.869550000000     0.0349879  
H155     H      0.715100000000     0.431630000000     0.863810000000     0.0352576  
H156     H      0.865590000000     0.568940000000     0.711510000000     0.0351272  
H157     H      0.630180000000     0.487510000000     0.692110000000     0.0342818  
H158     H      0.607640000000     0.494530000000     0.782110000000     0.0418938  
H159     H      0.693060000000     0.508580000000     0.628930000000     0.0344539  
H160     H      0.784160000000     0.501530000000     0.606230000000     0.0425444  
H161     H      0.720420000000     0.632220000000     0.056930000000     0.0358736  
H162     H      0.787660000000     0.896760000000     0.999040000000     0.0442802  
H163     H      0.612300000000     0.720280000000     0.998010000000     0.0470568  
H164     H      0.875910000000     0.793240000000     0.935350000000     0.0375762  
H165     H      0.697470000000     0.873800000000     0.992080000000     0.0344647  
H166     H      0.634400000000     0.809910000000     0.009730000000     0.0352148  
H167     H      0.636340000000     0.714090000000     0.059650000000     0.0363519  
H168     H      0.793250000000     0.872580000000     0.936830000000     0.0356247  
H169     H      0.815010000000     0.632740000000     0.002340000000     0.0299521  
H170     H      0.724680000000     0.610080000000     0.994480000000     0.0462427  
H171     H      0.878060000000     0.696620000000     0.984690000000     0.0364884  
H172     H      0.900240000000     0.785870000000     0.996790000000     0.0443854  
H173     H      0.721450000000     0.371140000000     0.935540000000     0.034738   
H174     H      0.789110000000     0.109770000000     0.003110000000     0.0427165  
H175     H      0.612760000000     0.284900000000     0.992390000000     0.0422145  
H176     H      0.875020000000     0.215250000000     0.066660000000     0.0378216  
H177     H      0.698900000000     0.132540000000     0.005430000000     0.0349347  
H178     H      0.636160000000     0.195630000000     0.984090000000     0.0331853  
H179     H      0.640150000000     0.291660000000     0.932160000000     0.037133   
H180     H      0.792580000000     0.136190000000     0.064530000000     0.0356018  
H181     H      0.815440000000     0.373980000000     0.994070000000     0.0338024  
H182     H      0.725330000000     0.396840000000     0.996690000000     0.0428461  
H183     H      0.878190000000     0.310840000000     0.015290000000     0.0358024  
H184     H      0.901420000000     0.221110000000     0.005910000000     0.0422291  
H185     H      0.137800000000     0.789340000000     0.074630000000     0.0364647  
H186     H      0.399310000000     0.718480000000     0.998180000000     0.0454618  
H187     H      0.225660000000     0.895370000000     0.017290000000     0.0414007  
H188     H      0.289760000000     0.633440000000     0.941280000000     0.0358981  
H189     H      0.377040000000     0.807720000000     0.996630000000     0.0407794  
H190     H      0.315000000000     0.870770000000     0.020040000000     0.0321166  
H191     H      0.218940000000     0.866160000000     0.076660000000     0.0351005  
H192     H      0.369020000000     0.713700000000     0.938530000000     0.0363003  
H193     H      0.132770000000     0.695040000000     0.018490000000     0.0316429  
H194     H      0.110860000000     0.784710000000     0.013960000000     0.0415783  
H195     H      0.195060000000     0.631780000000     0.996240000000     0.0401603  
H196     H      0.285610000000     0.607890000000     0.002470000000     0.0391822  
H197     H      0.293780000000     0.370520000000     0.070150000000     0.0354235  
H198     H      0.226260000000     0.108360000000     0.010840000000     0.0342173  
H199     H      0.401700000000     0.284930000000     0.010380000000     0.0385226  
H200     H      0.139980000000     0.212040000000     0.943790000000     0.0350057  
H201     H      0.317110000000     0.131230000000     0.004230000000     0.0318465  
H202     H      0.379780000000     0.195350000000     0.022510000000     0.0331067  
H203     H      0.377180000000     0.291890000000     0.071770000000     0.0370242  
H204     H      0.223210000000     0.131040000000     0.947930000000     0.0348251  
H205     H      0.198630000000     0.371890000000     0.013280000000     0.0335689  
H206     H      0.288210000000     0.395560000000     0.008820000000     0.0379238  
H207     H      0.136180000000     0.307890000000     0.994060000000     0.0330634  
H208     H      0.113990000000     0.218490000000     0.004640000000     0.0350637  
H209     H      0.647260000000     0.074940000000     0.710300000000     0.0342147  
H210     H      0.904470000000     0.004310000000     0.783650000000     0.0413409  
H211     H      0.729210000000     0.007880000000     0.606150000000     0.0401912  
H212     H      0.796550000000     0.941260000000     0.866780000000     0.0360313  
H213     H      0.882840000000     0.996040000000     0.693130000000     0.0418931  
H214     H      0.820060000000     0.015800000000     0.629430000000     0.0317538  
H215     H      0.724690000000     0.069790000000     0.629790000000     0.0348653  
H216     H      0.879470000000     0.942300000000     0.787840000000     0.0381976  
H217     H      0.638780000000     0.018490000000     0.806240000000     0.0316528  
H218     H      0.615820000000     0.016720000000     0.717910000000     0.0418278  
H219     H      0.701130000000     0.996630000000     0.869510000000     0.0415063  
H220     H      0.790650000000     0.001800000000     0.893450000000     0.0410052  
H221     H      0.116220000000     0.015130000000     0.789560000000     0.0423894  
H222     H      0.379310000000     0.938280000000     0.719860000000     0.0360194  
H223     H      0.225510000000     0.067680000000     0.877330000000     0.0357771  
H224     H      0.290560000000     0.995900000000     0.614010000000     0.0435087  
H225     H      0.383210000000     0.992750000000     0.814530000000     0.0341986  
H226     H      0.320540000000     0.013300000000     0.878080000000     0.0356517  
H227     H      0.229640000000     0.005910000000     0.901390000000     0.0418133  
H228     H      0.404880000000     0.000080000000     0.724080000000     0.0390113  
H229     H      0.139190000000     0.015340000000     0.701290000000     0.0348251  
H230     H      0.148500000000     0.072970000000     0.796780000000     0.0348644  
H231     H      0.201360000000     0.992310000000     0.638240000000     0.0334557  
H232     H      0.297260000000     0.936220000000     0.642440000000     0.0347062  
H233     H      0.365120000000     0.073630000000     0.297970000000     0.0345723  
H234     H      0.109410000000     0.000840000000     0.223000000000     0.0345561  
H235     H      0.284900000000     0.000960000000     0.400510000000     0.0417025  
H236     H      0.218090000000     0.939220000000     0.139870000000     0.0366117  
H237     H      0.131010000000     0.989450000000     0.313650000000     0.033021   
H238     H      0.193530000000     0.008510000000     0.377800000000     0.0349036  
H239     H      0.287190000000     0.063900000000     0.379590000000     0.0347725  
H240     H      0.134120000000     0.938790000000     0.218060000000     0.0370685  
H241     H      0.374390000000     0.019570000000     0.200940000000     0.0321436  
H242     H      0.397520000000     0.016110000000     0.289290000000     0.0417411  
H243     H      0.312510000000     0.997460000000     0.137290000000     0.0383938  
H244     H      0.223170000000     0.999860000000     0.113230000000     0.0400919  
H245     H      0.898150000000     0.014850000000     0.218800000000     0.0418353  
H246     H      0.633290000000     0.944580000000     0.288730000000     0.0378309  
H247     H      0.789560000000     0.067680000000     0.128920000000     0.034476   
H248     H      0.722530000000     0.005820000000     0.394120000000     0.0366391  
H249     H      0.631570000000     0.995590000000     0.193620000000     0.040067   
H250     H      0.694680000000     0.013730000000     0.129780000000     0.0313933  
H251     H      0.785700000000     0.005080000000     0.107260000000     0.0406509  
H252     H      0.609710000000     0.007070000000     0.284350000000     0.0356914  
H253     H      0.874970000000     0.021120000000     0.307380000000     0.0328428  
H254     H      0.869220000000     0.074180000000     0.210620000000     0.0368537  
H255     H      0.812300000000     0.000720000000     0.370820000000     0.0349511  
H256     H      0.717740000000     0.944610000000     0.368920000000     0.0368285  
H257     H      0.968720000000     0.286030000000     0.626440000000     0.0402735  
H258     H      0.017270000000     0.220050000000     0.897630000000     0.0422966  
H259     H      0.029810000000     0.393160000000     0.720000000000     0.0413496  
H260     H      0.077640000000     0.129720000000     0.793580000000     0.0346952  
H261     H      0.027470000000     0.309200000000     0.875110000000     0.0340054  
H262     H      0.012900000000     0.372670000000     0.811360000000     0.0340547  
H263     H      0.965160000000     0.377100000000     0.718550000000     0.0418761  
H264     H      0.079800000000     0.212510000000     0.873510000000     0.0356098  
H265     H      0.017150000000     0.194740000000     0.632990000000     0.0334462  
H266     H      0.034090000000     0.286730000000     0.613610000000     0.0416927  
H267     H      0.030550000000     0.131150000000     0.696860000000     0.0333702  
H268     H      0.014370000000     0.109440000000     0.786310000000     0.0415443  
H269     H      0.007280000000     0.720200000000     0.609930000000     0.0392807  
H270     H      0.056840000000     0.787930000000     0.876090000000     0.0405496  
H271     H      0.940610000000     0.632000000000     0.712890000000     0.0340893  
H272     H      0.994760000000     0.894270000000     0.785990000000     0.0459369  
H273     H      0.002890000000     0.695250000000     0.874030000000     0.0358344  
H274     H      0.987750000000     0.632010000000     0.810180000000     0.0336334  
H275     H      0.003060000000     0.609640000000     0.721040000000     0.0391552  
H276     H      0.992240000000     0.785900000000     0.895100000000     0.046303   
H277     H      0.996990000000     0.809720000000     0.631740000000     0.033824   
H278     H      0.943880000000     0.714870000000     0.630590000000     0.0342625  
H279     H      0.012010000000     0.872970000000     0.695610000000     0.0359669  
H280     H      0.058650000000     0.875470000000     0.790380000000     0.0404181  
H281     H      0.015170000000     0.719590000000     0.397420000000     0.042243   
H282     H      0.963020000000     0.787610000000     0.131450000000     0.04135    
H283     H      0.080650000000     0.632500000000     0.294290000000     0.0353063  
H284     H      0.029550000000     0.893030000000     0.220730000000     0.0427358  
H285     H      0.016300000000     0.695170000000     0.133030000000     0.033739   
H286     H      0.031810000000     0.631630000000     0.196500000000     0.0334938  
H287     H      0.018820000000     0.608550000000     0.285400000000     0.0412635  
H288     H      0.027540000000     0.786160000000     0.112250000000     0.0422795  
H289     H      0.025660000000     0.808830000000     0.375590000000     0.0340668  
H290     H      0.077930000000     0.712950000000     0.375190000000     0.0349003  
H291     H      0.011030000000     0.872460000000     0.312020000000     0.0343001  
H292     H      0.964700000000     0.877600000000     0.218920000000     0.0405531  
H293     H      0.013320000000     0.285540000000     0.395160000000     0.0341151  
H294     H      0.046380000000     0.215570000000     0.125990000000     0.0313538  
H295     H      0.950260000000     0.379880000000     0.292100000000     0.0364844  
H296     H      0.976670000000     0.113580000000     0.219250000000     0.0425962  
H297     H      0.002580000000     0.309450000000     0.132440000000     0.0330303  
H298     H      0.994380000000     0.373740000000     0.196430000000     0.0334404  
H299     H      0.015240000000     0.393810000000     0.286270000000     0.0340793  
H300     H      0.980330000000     0.218290000000     0.113540000000     0.0439439  
H301     H      0.992140000000     0.196030000000     0.375000000000     0.0352176  
H302     H      0.948740000000     0.292260000000     0.379850000000     0.0365423  
H303     H      0.000100000000     0.131720000000     0.310990000000     0.0281685  
H304     H      0.042690000000     0.122340000000     0.218170000000     0.0304127  
N1       N      0.503800000000     0.346590000000     0.159210000000    -0.187164   
N2       N      0.489500000000     0.158060000000     0.349680000000    -0.190751   
N3       N      0.520730000000     0.658320000000     0.157230000000    -0.184937   
N4       N      0.512960000000     0.847920000000     0.347060000000    -0.18773    
N5       N      0.513130000000     0.845740000000     0.659280000000    -0.18387    
N6       N      0.485380000000     0.657020000000     0.846480000000    -0.186065   
N7       N      0.526150000000     0.157800000000     0.659680000000    -0.186734   
N8       N      0.503920000000     0.346340000000     0.847870000000    -0.190759   
N9       N      0.848100000000     0.348510000000     0.482260000000    -0.186423   
N10      N      0.661770000000     0.159290000000     0.512900000000    -0.190464   
N11      N      0.850320000000     0.660230000000     0.511160000000    -0.184141   
N12      N      0.664210000000     0.849070000000     0.479890000000    -0.186377   
N13      N      0.160260000000     0.346070000000     0.519180000000    -0.190053   
N14      N      0.348110000000     0.157150000000     0.492210000000    -0.18648    
N15      N      0.164520000000     0.656670000000     0.489970000000    -0.186427   
N16      N      0.351760000000     0.845300000000     0.519440000000    -0.183802   
N17      N      0.666020000000     0.516530000000     0.154940000000    -0.184331   
N18      N      0.852130000000     0.486740000000     0.344360000000    -0.186498   
N19      N      0.165000000000     0.512390000000     0.350760000000    -0.190158   
N20      N      0.352700000000     0.484260000000     0.161780000000    -0.186178   
N21      N      0.159170000000     0.482900000000     0.662000000000    -0.186216   
N22      N      0.346400000000     0.513340000000     0.850530000000    -0.190107   
N23      N      0.845800000000     0.516590000000     0.655940000000    -0.184309   
N24      N      0.658740000000     0.483190000000     0.843350000000    -0.186472   
N25      N      0.849990000000     0.847830000000     0.986220000000    -0.183562   
N26      N      0.662330000000     0.658570000000     0.009910000000    -0.183701   
N27      N      0.851020000000     0.159310000000     0.016360000000    -0.185221   
N28      N      0.663220000000     0.347010000000     0.983490000000    -0.186144   
N29      N      0.348010000000     0.657260000000     0.989430000000    -0.184568   
N30      N      0.162410000000     0.845740000000     0.025170000000    -0.186651   
N31      N      0.164480000000     0.156710000000     0.994430000000    -0.192088   
N32      N      0.351090000000     0.346570000000     0.021080000000    -0.190372   
N33      N      0.853800000000     0.991140000000     0.844330000000    -0.182611   
N34      N      0.667150000000     0.021890000000     0.655650000000    -0.187283   
N35      N      0.353890000000     0.987360000000     0.663470000000    -0.184577   
N36      N      0.167660000000     0.019990000000     0.851750000000    -0.186213   
N37      N      0.160070000000     0.988230000000     0.162220000000    -0.189754   
N38      N      0.346380000000     0.019190000000     0.351720000000    -0.186152   
N39      N      0.659700000000     0.992980000000     0.345220000000    -0.189595   
N40      N      0.847570000000     0.021200000000     0.156310000000    -0.186456   
N41      N      0.028270000000     0.158020000000     0.848530000000    -0.186359   
N42      N      0.007930000000     0.346450000000     0.659320000000    -0.186395   
N43      N      0.012100000000     0.846530000000     0.847580000000    -0.183029   
N44      N      0.991770000000     0.658460000000     0.658560000000    -0.186277   
N45      N      0.007440000000     0.846500000000     0.159900000000    -0.18575    
N46      N      0.028370000000     0.657700000000     0.348060000000    -0.186632   
N47      N      0.003790000000     0.157600000000     0.158810000000    -0.191413   
N48      N      0.995650000000     0.347700000000     0.348380000000    -0.189856   
O1       O      0.004680000000     0.136260000000     0.074530000000    -0.630771   
O2       O      0.006680000000     0.868060000000     0.075580000000    -0.57308    
O3       O      0.932530000000     0.011840000000     0.136660000000    -0.610721   
O4       O      0.075720000000     0.996310000000     0.139220000000    -0.621907   
O5       O      0.140620000000     0.996920000000     0.077770000000    -0.626541   
O6       O      0.870090000000     0.008790000000     0.072870000000    -0.567755   
O7       O      0.008140000000     0.930840000000     0.138590000000    -0.611476   
O8       O      0.002980000000     0.073350000000     0.137530000000    -0.628868   
O9       O      0.055310000000     0.953440000000     0.053770000000    -1.46919    
O10      O      0.957370000000     0.051800000000     0.051530000000    -1.46738    
O11      O      0.948090000000     0.946030000000     0.053350000000    -1.05029    
O12      O      0.058140000000     0.053050000000     0.055800000000    -1.62693    
O13      O      0.008440000000     0.867930000000     0.931880000000    -0.565075   
O14      O      0.017290000000     0.137210000000     0.932450000000    -0.610562   
O15      O      0.871100000000     0.931680000000     0.996760000000    -0.561213   
O16      O      0.142590000000     0.929960000000     0.014500000000    -0.610414   
O17      O      0.142930000000     0.072650000000     0.002230000000    -0.630568   
O18      O      0.872100000000     0.075450000000     0.005790000000    -0.571249   
O19      O      0.938180000000     0.998830000000     0.867240000000    -0.565341   
O20      O      0.082980000000     0.008760000000     0.871280000000    -0.573868   
O21      O      0.873280000000     0.999840000000     0.928750000000    -0.561635   
O22      O      0.145180000000     0.009260000000     0.935340000000    -0.610685   
O23      O      0.934440000000     0.868650000000     0.996730000000    -0.564987   
O24      O      0.935940000000     0.137730000000     0.009780000000    -0.610987   
O25      O      0.079640000000     0.135680000000     0.000170000000    -0.63137    
O26      O      0.078570000000     0.867800000000     0.012080000000    -0.572349   
O27      O      0.010140000000     0.930830000000     0.868910000000    -0.567741   
O28      O      0.015780000000     0.074490000000     0.869450000000    -0.573954   
O29      O      0.058060000000     0.050910000000     0.956240000000    -1.47566    
O30      O      0.959020000000     0.954270000000     0.953760000000    -1.36684    
O31      O      0.951380000000     0.054040000000     0.945320000000    -1.05508    
O32      O      0.059940000000     0.945360000000     0.947940000000    -1.06082    
O33      O      0.001790000000     0.368870000000     0.432500000000    -0.631251   
O34      O      0.014320000000     0.636690000000     0.431370000000    -0.573826   
O35      O      0.936560000000     0.495540000000     0.366830000000    -0.611186   
O36      O      0.079930000000     0.506280000000     0.370900000000    -0.629335   
O37      O      0.142420000000     0.505340000000     0.434780000000    -0.626423   
O38      O      0.871880000000     0.498570000000     0.428350000000    -0.577482   
O39      O      0.017130000000     0.573830000000     0.368570000000    -0.613217   
O40      O      0.003380000000     0.431690000000     0.369470000000    -0.628735   
O41      O      0.056710000000     0.550600000000     0.455430000000    -1.48145    
O42      O      0.957220000000     0.454340000000     0.453490000000    -1.48317    
O43      O      0.949890000000     0.560260000000     0.450820000000    -1.06311    
O44      O      0.057870000000     0.451030000000     0.453270000000    -1.6317     
O45      O      0.002080000000     0.637220000000     0.574770000000    -0.571985   
O46      O      0.007920000000     0.367840000000     0.574970000000    -0.616619   
O47      O      0.870740000000     0.575920000000     0.503780000000    -0.572133   
O48      O      0.142750000000     0.572720000000     0.498760000000    -0.613875   
O49      O      0.139990000000     0.430280000000     0.510580000000    -0.630648   
O50      O      0.869640000000     0.431980000000     0.495030000000    -0.574278   
O51      O      0.930760000000     0.507750000000     0.636240000000    -0.566834   
O52      O      0.075410000000     0.495900000000     0.639230000000    -0.574407   
O53      O      0.868380000000     0.507490000000     0.572220000000    -0.570518   
O54      O      0.140020000000     0.493240000000     0.577600000000    -0.614533   
O55      O      0.934960000000     0.638050000000     0.504920000000    -0.566518   
O56      O      0.932720000000     0.368840000000     0.493290000000    -0.611172   
O57      O      0.075820000000     0.368130000000     0.509910000000    -0.629315   
O58      O      0.079810000000     0.636040000000     0.499390000000    -0.573511   
O59      O      0.000280000000     0.574410000000     0.637810000000    -0.572102   
O60      O      0.004940000000     0.430700000000     0.637880000000    -0.5748     
O61      O      0.053650000000     0.453240000000     0.553090000000    -1.48068    
O62      O      0.956290000000     0.551660000000     0.550830000000    -1.38444    
O63      O      0.946440000000     0.452300000000     0.559020000000    -1.05961    
O64      O      0.056870000000     0.559100000000     0.561360000000    -1.05846    
O65      O      0.639960000000     0.000130000000     0.429670000000    -0.633067   
O66      O      0.369290000000     0.007030000000     0.435100000000    -0.56773    
O67      O      0.509470000000     0.932050000000     0.368620000000    -0.614483   
O68      O      0.498390000000     0.074140000000     0.370530000000    -0.629891   
O69      O      0.499260000000     0.136880000000     0.433630000000    -0.63151    
O70      O      0.509160000000     0.868880000000     0.431330000000    -0.576818   
O71      O      0.431490000000     0.011050000000     0.371140000000    -0.613312   
O72      O      0.575100000000     0.999280000000     0.368190000000    -0.624454   
O73      O      0.456000000000     0.051400000000     0.456610000000    -1.48181    
O74      O      0.555310000000     0.954820000000     0.453570000000    -1.47838    
O75      O      0.448410000000     0.945560000000     0.454060000000    -1.05559    
O76      O      0.556520000000     0.054640000000     0.451790000000    -1.63463    
O77      O      0.373010000000     0.997230000000     0.579120000000    -0.565075   
O78      O      0.644610000000     0.011350000000     0.572020000000    -0.611831   
O79      O      0.436030000000     0.867470000000     0.509600000000    -0.571752   
O80      O      0.433230000000     0.136810000000     0.498790000000    -0.617232   
O81      O      0.577020000000     0.137340000000     0.507340000000    -0.632161   
O82      O      0.580220000000     0.869490000000     0.494340000000    -0.576045   
O83      O      0.510920000000     0.930260000000     0.638370000000    -0.564528   
O84      O      0.514380000000     0.074210000000     0.638520000000    -0.572649   
O85      O      0.509810000000     0.867700000000     0.575060000000    -0.569475   
O86      O      0.515040000000     0.137220000000     0.575770000000    -0.617326   
O87      O      0.371800000000     0.929600000000     0.510540000000    -0.563669   
O88      O      0.643150000000     0.932750000000     0.492110000000    -0.609698   
O89      O      0.641080000000     0.075090000000     0.505360000000    -0.628115   
O90      O      0.370330000000     0.073540000000     0.502700000000    -0.57037    
O91      O      0.438030000000     0.997070000000     0.640500000000    -0.567419   
O92      O      0.582600000000     0.009490000000     0.636240000000    -0.573705   
O93      O      0.556710000000     0.051860000000     0.551540000000    -1.48397    
O94      O      0.459410000000     0.953400000000     0.553760000000    -1.37649    
O95      O      0.560460000000     0.946180000000     0.559250000000    -1.06584    
O96      O      0.450160000000     0.053090000000     0.562700000000    -1.05429    
O97      O      0.435360000000     0.368190000000     0.010680000000    -0.629231   
O98      O      0.432680000000     0.636110000000     0.998340000000    -0.570276   
O99      O      0.371710000000     0.493980000000     0.077270000000    -0.611842   
O100     O      0.369050000000     0.505790000000     0.934510000000    -0.622276   
O101     O      0.431380000000     0.506440000000     0.870460000000    -0.632172   
O102     O      0.436510000000     0.496450000000     0.138700000000    -0.576413   
O103     O      0.369360000000     0.573190000000     0.998240000000    -0.608154   
O104     O      0.371440000000     0.430600000000     0.010900000000    -0.626424   
O105     O      0.455190000000     0.550300000000     0.954530000000    -1.47815    
O106     O      0.457950000000     0.453220000000     0.052600000000    -1.47772    
O107     O      0.455320000000     0.559230000000     0.060560000000    -1.06294    
O108     O      0.453270000000     0.450830000000     0.953050000000    -1.6286     
O109     O      0.577560000000     0.637020000000     0.003760000000    -0.5682     
O110     O      0.578410000000     0.367810000000     0.993040000000    -0.609279   
O111     O      0.511830000000     0.574350000000     0.136690000000    -0.571911   
O112     O      0.495310000000     0.573030000000     0.867450000000    -0.613887   
O113     O      0.504850000000     0.430690000000     0.868870000000    -0.632488   
O114     O      0.506800000000     0.430750000000     0.137380000000    -0.576424   
O115     O      0.643460000000     0.506660000000     0.071210000000    -0.565592   
O116     O      0.639470000000     0.496200000000     0.927260000000    -0.573481   
O117     O      0.581110000000     0.507630000000     0.135270000000    -0.571248   
O118     O      0.574560000000     0.493460000000     0.865970000000    -0.617595   
O119     O      0.510470000000     0.637010000000     0.073470000000    -0.567741   
O120     O      0.503310000000     0.367630000000     0.074750000000    -0.613475   
O121     O      0.506530000000     0.368040000000     0.932080000000    -0.628967   
O122     O      0.498270000000     0.636080000000     0.930050000000    -0.5704     
O123     O      0.641390000000     0.574460000000     0.002200000000    -0.570032   
O124     O      0.641760000000     0.430670000000     0.994850000000    -0.570029   
O125     O      0.554100000000     0.453200000000     0.952530000000    -1.47847    
O126     O      0.555830000000     0.550990000000     0.049640000000    -1.38367    
O127     O      0.565060000000     0.451660000000     0.058310000000    -1.06029    
O128     O      0.562010000000     0.559140000000     0.949700000000    -1.05559    


