data_structure

_audit_creation_method RASPA-1.0
_audit_creation_date 2023-5-19
_audit_author_name 'Poobodin Mano'

_cell_length_a    20.2451
_cell_length_b    20.2408
_cell_length_c    20.2346
_cell_angle_alpha 90
_cell_angle_beta  90
_cell_angle_gamma 90
_cell_volume      8291.67

_symmetry_cell_setting          triclinic
_symmetry_space_group_name_Hall 'P 1'
_symmetry_space_group_name_H-M  'P 1'
_symmetry_Int_Tables_number     1

_symmetry_equiv_pos_as_xyz 'x,y,z'

loop_
_atom_site_label
_atom_site_type_symbol
_atom_site_fract_x
_atom_site_fract_y
_atom_site_fract_z
_atom_site_charge
C1       C      0.020260000000     0.155070000000     0.160300000000     0.725636   
C2       C      0.006610000000     0.845390000000     0.152690000000     0.688826   
C3       C      0.846830000000     0.009790000000     0.155820000000     0.675312   
C4       C      0.152490000000     0.017740000000     0.161290000000     0.755974   
C5       C      0.002560000000     0.858150000000     0.847930000000     0.555114   
C6       C      0.022390000000     0.162930000000     0.855090000000     0.663111   
C7       C      0.852210000000     0.853260000000     0.995980000000     0.57016    
C8       C      0.158700000000     0.852090000000     0.018840000000     0.708323   
C9       C      0.156220000000     0.158760000000     0.031120000000     0.728582   
C10      C      0.851080000000     0.158590000000     0.014480000000     0.703743   
C11      C      0.857160000000     0.005880000000     0.850830000000     0.565941   
C12      C      0.163130000000     0.015490000000     0.853500000000     0.65551    
C13      C      0.027540000000     0.347610000000     0.358500000000     0.730977   
C14      C      0.010520000000     0.656250000000     0.350220000000     0.684462   
C15      C      0.855440000000     0.492670000000     0.346620000000     0.692557   
C16      C      0.161510000000     0.486010000000     0.359000000000     0.727234   
C17      C      0.995120000000     0.659810000000     0.654740000000     0.559293   
C18      C      0.011540000000     0.358050000000     0.666180000000     0.673373   
C19      C      0.849100000000     0.653440000000     0.495930000000     0.585873   
C20      C      0.154710000000     0.662980000000     0.502140000000     0.684256   
C21      C      0.157620000000     0.353860000000     0.499330000000     0.729614   
C22      C      0.850680000000     0.349380000000     0.491270000000     0.69231    
C23      C      0.846030000000     0.509650000000     0.652040000000     0.565208   
C24      C      0.150500000000     0.490570000000     0.666440000000     0.660014   
C25      C      0.653240000000     0.021370000000     0.350260000000     0.749633   
C26      C      0.346250000000     0.014620000000     0.354960000000     0.68403    
C27      C      0.499030000000     0.853150000000     0.348920000000     0.696156   
C28      C      0.513620000000     0.159700000000     0.354140000000     0.745147   
C29      C      0.356020000000     0.003980000000     0.658800000000     0.571521   
C30      C      0.659880000000     0.006850000000     0.659470000000     0.646527   
C31      C      0.350910000000     0.855180000000     0.508140000000     0.589363   
C32      C      0.352020000000     0.161070000000     0.497830000000     0.694679   
C33      C      0.659250000000     0.153330000000     0.484090000000     0.740096   
C34      C      0.656330000000     0.848410000000     0.492010000000     0.688839   
C35      C      0.500890000000     0.851230000000     0.654940000000     0.555652   
C36      C      0.518930000000     0.157000000000     0.660400000000     0.669704   
C37      C      0.352670000000     0.352220000000     0.030080000000     0.731815   
C38      C      0.657860000000     0.350670000000     0.012960000000     0.698762   
C39      C      0.502630000000     0.349190000000     0.852290000000     0.685231   
C40      C      0.491850000000     0.356540000000     0.162310000000     0.748792   
C41      C      0.657610000000     0.655540000000     0.995830000000     0.553905   
C42      C      0.350710000000     0.658840000000     0.014320000000     0.656626   
C43      C      0.652740000000     0.505040000000     0.849340000000     0.578612   
C44      C      0.661700000000     0.495720000000     0.154100000000     0.706137   
C45      C      0.353460000000     0.490230000000     0.160020000000     0.732769   
C46      C      0.346320000000     0.483840000000     0.855380000000     0.699277   
C47      C      0.501650000000     0.653220000000     0.848580000000     0.555735   
C48      C      0.498920000000     0.661640000000     0.155250000000     0.667616   
C49      C      0.498710000000     0.193730000000     0.241940000000     0.0470537  
C50      C      0.508140000000     0.273690000000     0.325370000000     0.0402974  
C51      C      0.490890000000     0.243740000000     0.194820000000     0.0394815  
C52      C      0.499060000000     0.324270000000     0.278780000000     0.0612941  
C53      C      0.507950000000     0.693530000000     0.267330000000     0.0545226  
C54      C      0.483390000000     0.773320000000     0.186130000000     0.0274341  
C55      C      0.507780000000     0.742170000000     0.315490000000     0.0351668  
C56      C      0.480800000000     0.822330000000     0.234480000000     0.0694149  
C57      C      0.505550000000     0.816430000000     0.768040000000     0.0387973  
C58      C      0.493040000000     0.737040000000     0.684520000000     0.0316871  
C59      C      0.506240000000     0.766160000000     0.815760000000     0.0352495  
C60      C      0.492650000000     0.686120000000     0.732050000000     0.0633157  
C61      C      0.502810000000     0.236070000000     0.821140000000     0.0538895  
C62      C      0.523840000000     0.318680000000     0.741740000000     0.0347275  
C63      C      0.508810000000     0.187970000000     0.772440000000     0.0326135  
C64      C      0.532510000000     0.270830000000     0.693210000000     0.0689885  
C65      C      0.738270000000     0.315900000000     0.480770000000     0.0383676  
C66      C      0.822440000000     0.235940000000     0.482240000000     0.0402981  
C67      C      0.690870000000     0.265930000000     0.477760000000     0.0460949  
C68      C      0.775470000000     0.185370000000     0.478860000000     0.0630315  
C69      C      0.768450000000     0.814960000000     0.502950000000     0.0560074  
C70      C      0.687190000000     0.736190000000     0.476600000000     0.0364814  
C71      C      0.816280000000     0.765410000000     0.504240000000     0.0299311  
C72      C      0.735300000000     0.686500000000     0.475050000000     0.0585483  
C73      C      0.317960000000     0.272320000000     0.478220000000     0.0473219  
C74      C      0.242030000000     0.194020000000     0.518610000000     0.0348833  
C75      C      0.268290000000     0.320500000000     0.478530000000     0.0414272  
C76      C      0.193720000000     0.242890000000     0.523810000000     0.0673994  
C77      C      0.317090000000     0.742420000000     0.505380000000     0.0340245  
C78      C      0.237010000000     0.826400000000     0.510020000000     0.0295839  
C79      C      0.267190000000     0.694950000000     0.503190000000     0.0505959  
C80      C      0.186420000000     0.779240000000     0.508140000000     0.0667323  
C81      C      0.694790000000     0.490320000000     0.266190000000     0.0545527  
C82      C      0.775370000000     0.489180000000     0.182430000000     0.0350099  
C83      C      0.743970000000     0.487360000000     0.313700000000     0.032543   
C84      C      0.825540000000     0.487620000000     0.229930000000     0.0659046  
C85      C      0.275300000000     0.481940000000     0.324780000000     0.0418441  
C86      C      0.190940000000     0.482690000000     0.245320000000     0.0402149  
C87      C      0.322740000000     0.483520000000     0.273900000000     0.0398382  
C88      C      0.237570000000     0.486160000000     0.194260000000     0.0605002  
C89      C      0.311790000000     0.473890000000     0.743870000000     0.0412263  
C90      C      0.232310000000     0.471420000000     0.828670000000     0.0460431  
C91      C      0.261690000000     0.475300000000     0.697090000000     0.0489715  
C92      C      0.181000000000     0.472850000000     0.781990000000     0.0596572  
C93      C      0.765640000000     0.505010000000     0.814810000000     0.0417538  
C94      C      0.681750000000     0.510930000000     0.735030000000     0.0311956  
C95      C      0.813310000000     0.506920000000     0.764810000000     0.0331668  
C96      C      0.729200000000     0.513400000000     0.684270000000     0.061792   
C97      C      0.738470000000     0.819170000000     0.991150000000     0.0409247  
C98      C      0.822050000000     0.739130000000     0.995190000000     0.0298068  
C99      C      0.690420000000     0.768880000000     0.991120000000     0.0314558  
C100     C      0.774510000000     0.688350000000     0.996070000000     0.0639565  
C101     C      0.819140000000     0.271230000000     0.010350000000     0.054765   
C102     C      0.739020000000     0.188590000000     0.027580000000     0.0336787  
C103     C      0.769940000000     0.319020000000     0.010260000000     0.0350494  
C104     C      0.689450000000     0.236250000000     0.029410000000     0.0680888  
C105     C      0.237960000000     0.690760000000     0.011210000000     0.0511746  
C106     C      0.320130000000     0.770000000000     0.033860000000     0.0276217  
C107     C      0.190030000000     0.739900000000     0.013090000000     0.0394043  
C108     C      0.272200000000     0.819300000000     0.038190000000     0.0714375  
C109     C      0.319480000000     0.238660000000     0.038070000000     0.0446491  
C110     C      0.239370000000     0.322340000000     0.039480000000     0.0386774  
C111     C      0.269340000000     0.190700000000     0.038630000000     0.0383963  
C112     C      0.188800000000     0.275010000000     0.040150000000     0.0604293  
C113     C      0.823240000000     0.012840000000     0.737770000000     0.029705   
C114     C      0.744200000000     0.997050000000     0.821360000000     0.0337561  
C115     C      0.772910000000     0.012780000000     0.690330000000     0.0507447  
C116     C      0.693500000000     0.996850000000     0.774620000000     0.0659265  
C117     C      0.243340000000     0.001770000000     0.692240000000     0.0398346  
C118     C      0.326650000000     0.016850000000     0.771880000000     0.0250328  
C119     C      0.195490000000     0.006240000000     0.741530000000     0.0393202  
C120     C      0.278940000000     0.022900000000     0.821640000000     0.0722693  
C121     C      0.312890000000     0.030390000000     0.243310000000     0.0444603  
C122     C      0.233440000000     0.006720000000     0.324790000000     0.027948   
C123     C      0.263430000000     0.031810000000     0.195390000000     0.0425638  
C124     C      0.183760000000     0.005350000000     0.276850000000     0.0677757  
C125     C      0.814230000000     0.009490000000     0.268890000000     0.0434653  
C126     C      0.734530000000     0.026330000000     0.186130000000     0.0291372  
C127     C      0.765190000000     0.013640000000     0.317100000000     0.0455512  
C128     C      0.684980000000     0.031690000000     0.234190000000     0.0657862  
C129     C      0.019540000000     0.196910000000     0.743710000000     0.0342527  
C130     C      0.036600000000     0.276270000000     0.827150000000     0.0442055  
C131     C      0.014340000000     0.246670000000     0.697420000000     0.0539587  
C132     C      0.031890000000     0.327470000000     0.780720000000     0.0598802  
C133     C      0.993060000000     0.694920000000     0.767820000000     0.0372109  
C134     C      0.997360000000     0.774380000000     0.683570000000     0.0348934  
C135     C      0.995210000000     0.745210000000     0.815480000000     0.0390976  
C136     C      0.000260000000     0.825350000000     0.730920000000     0.0582394  
C137     C      0.006380000000     0.768050000000     0.315360000000     0.0379896  
C138     C      0.015250000000     0.683220000000     0.236310000000     0.0419803  
C139     C      0.004940000000     0.814720000000     0.265110000000     0.0471051  
C140     C      0.014030000000     0.729640000000     0.185270000000     0.0595845  
C141     C      0.021060000000     0.268050000000     0.195260000000     0.0459911  
C142     C      0.035540000000     0.184220000000     0.273830000000     0.0365871  
C143     C      0.024530000000     0.315750000000     0.245330000000     0.0425655  
C144     C      0.039130000000     0.231700000000     0.324610000000     0.0589919  
H1       H      0.956970000000     0.957280000000     0.052090000000    -1.26001    
H2       H      0.043790000000     0.044400000000     0.046290000000    -1.13669    
H3       H      0.947280000000     0.118810000000     0.946620000000    -0.564021   
H4       H      0.118010000000     0.947330000000     0.947750000000    -0.560407   
H5       H      0.958220000000     0.549420000000     0.454190000000    -1.2524     
H6       H      0.045640000000     0.464370000000     0.469050000000    -1.1107     
H7       H      0.942820000000     0.393230000000     0.565870000000    -0.544284   
H8       H      0.112990000000     0.566020000000     0.568720000000    -0.524483   
H9       H      0.455880000000     0.959440000000     0.456110000000    -1.27356    
H10      H      0.544160000000     0.044510000000     0.465380000000    -1.12648    
H11      H      0.615810000000     0.942740000000     0.561540000000    -0.554929   
H12      H      0.447680000000     0.117140000000     0.565920000000    -0.558489   
H13      H      0.549590000000     0.454080000000     0.958040000000    -1.25001    
H14      H      0.465000000000     0.465640000000     0.046130000000    -1.15773    
H15      H      0.390820000000     0.561730000000     0.945520000000    -0.562438   
H16      H      0.565760000000     0.565410000000     0.113680000000    -0.584877   
H17      H      0.483400000000     0.228210000000     0.144100000000     0.0255672  
H18      H      0.495580000000     0.143070000000     0.225090000000     0.023685   
H19      H      0.513870000000     0.287660000000     0.376850000000     0.0296628  
H20      H      0.557780000000     0.428700000000     0.319920000000     0.015084   
H21      H      0.519100000000     0.726730000000     0.365550000000     0.0318868  
H22      H      0.518860000000     0.643390000000     0.282780000000     0.0241361  
H23      H      0.471880000000     0.786810000000     0.135490000000     0.0332936  
H24      H      0.383970000000     0.901440000000     0.212620000000     0.0206412  
H25      H      0.512150000000     0.781530000000     0.866740000000     0.0352848  
H26      H      0.510540000000     0.866920000000     0.785090000000     0.034327   
H27      H      0.487040000000     0.723410000000     0.633010000000     0.0365587  
H28      H      0.537180000000     0.577730000000     0.682970000000     0.0264382  
H29      H      0.500860000000     0.137100000000     0.787260000000     0.0311057  
H30      H      0.491630000000     0.220200000000     0.871090000000     0.0220702  
H31      H      0.532450000000     0.369880000000     0.728250000000     0.0333358  
H32      H      0.632180000000     0.298670000000     0.619230000000     0.021492   
H33      H      0.639640000000     0.281380000000     0.475860000000     0.0276885  
H34      H      0.721110000000     0.366660000000     0.481130000000     0.0304293  
H35      H      0.874250000000     0.222150000000     0.483070000000     0.0261611  
H36      H      0.817560000000     0.080360000000     0.536750000000     0.0146085  
H37      H      0.866200000000     0.780190000000     0.516860000000     0.0342699  
H38      H      0.784150000000     0.864950000000     0.514120000000     0.0243177  
H39      H      0.636770000000     0.723230000000     0.463730000000     0.031806   
H40      H      0.714320000000     0.612780000000     0.374930000000     0.0227909  
H41      H      0.280820000000     0.369380000000     0.460510000000     0.0275432  
H42      H      0.366720000000     0.286150000000     0.460830000000     0.0239823  
H43      H      0.230630000000     0.145200000000     0.537740000000     0.0315986  
H44      H      0.075490000000     0.193930000000     0.542070000000     0.0113628  
H45      H      0.282740000000     0.643780000000     0.500120000000     0.0231262  
H46      H      0.367800000000     0.725260000000     0.504060000000     0.0323308  
H47      H      0.223070000000     0.878090000000     0.513120000000     0.0359885  
H48      H      0.082130000000     0.825380000000     0.452220000000     0.0265831  
H49      H      0.727740000000     0.485330000000     0.364680000000     0.0328282  
H50      H      0.644160000000     0.492110000000     0.283130000000     0.021567   
H51      H      0.789440000000     0.488750000000     0.130670000000     0.0341862  
H52      H      0.931270000000     0.544890000000     0.188770000000     0.0167737  
H53      H      0.374100000000     0.484000000000     0.288690000000     0.0287442  
H54      H      0.292540000000     0.481320000000     0.375490000000     0.0241274  
H55      H      0.139150000000     0.482970000000     0.231430000000     0.0288402  
H56      H      0.194630000000     0.561210000000     0.101060000000     0.0164131  
H57      H      0.277180000000     0.476340000000     0.645810000000     0.0272789  
H58      H      0.362370000000     0.474230000000     0.726230000000     0.0310723  
H59      H      0.219130000000     0.470270000000     0.880650000000     0.0283548  
H60      H      0.075190000000     0.542840000000     0.805770000000     0.0371772  
H61      H      0.864440000000     0.504500000000     0.780560000000     0.0351788  
H62      H      0.782810000000     0.500960000000     0.865340000000     0.0291807  
H63      H      0.630060000000     0.512780000000     0.721210000000     0.0341403  
H64      H      0.689490000000     0.588940000000     0.591130000000     0.031603   
H65      H      0.639220000000     0.784400000000     0.989020000000     0.0348235  
H66      H      0.721550000000     0.869950000000     0.989340000000     0.0314829  
H67      H      0.873700000000     0.724980000000     0.996970000000     0.0346642  
H68      H      0.821190000000     0.584450000000     0.940400000000     0.0285897  
H69      H      0.785380000000     0.369700000000     0.002280000000     0.0310478  
H70      H      0.869660000000     0.287410000000     0.002870000000     0.0239199  
H71      H      0.725320000000     0.137460000000     0.036270000000     0.0335731  
H72      H      0.607370000000     0.206540000000     0.120720000000     0.0193183  
H73      H      0.139570000000     0.725000000000     0.003110000000     0.0300366  
H74      H      0.222090000000     0.640720000000     0.000500000000     0.0240567  
H75      H      0.371050000000     0.783200000000     0.044290000000     0.034166   
H76      H      0.318910000000     0.935660000000     0.016180000000     0.0164115  
H77      H      0.284790000000     0.139420000000     0.038290000000     0.0259457  
H78      H      0.370290000000     0.221770000000     0.037200000000     0.0232536  
H79      H      0.225250000000     0.373940000000     0.039270000000     0.0313996  
H80      H      0.086940000000     0.322560000000     0.980850000000     0.0153229  
H81      H      0.787500000000     0.019600000000     0.639280000000     0.0233643  
H82      H      0.873540000000     0.020180000000     0.721050000000     0.0309172  
H83      H      0.730640000000     0.989740000000     0.872740000000     0.038515   
H84      H      0.584300000000     0.040570000000     0.823100000000     0.0294608  
H85      H      0.144510000000     0.000690000000     0.726100000000     0.0332114  
H86      H      0.226650000000     0.993800000000     0.641950000000     0.0347299  
H87      H      0.378140000000     0.022790000000     0.785590000000     0.0369314  
H88      H      0.311410000000     0.112720000000     0.905580000000     0.021051   
H89      H      0.278460000000     0.043230000000     0.145240000000     0.0272166  
H90      H      0.363160000000     0.040430000000     0.227760000000     0.0229243  
H91      H      0.219990000000     0.995260000000     0.375450000000     0.0341215  
H92      H      0.069910000000     0.029590000000     0.329710000000     0.0134199  
H93      H      0.780740000000     0.006460000000     0.367800000000     0.0268774  
H94      H      0.864450000000     0.000640000000     0.285260000000     0.0222102  
H95      H      0.720710000000     0.032660000000     0.134680000000     0.0335834  
H96      H      0.572200000000     0.994660000000     0.189360000000     0.0177929  
H97      H      0.002950000000     0.231280000000     0.647420000000     0.0228036  
H98      H      0.013110000000     0.146540000000     0.726560000000     0.0316189  
H99      H      0.043470000000     0.289260000000     0.878600000000     0.0272182  
H100     H      0.987000000000     0.410600000000     0.869800000000     0.0186994  
H101     H      0.993870000000     0.729760000000     0.866760000000     0.0335646  
H102     H      0.990330000000     0.644330000000     0.785210000000     0.0314165  
H103     H      0.998320000000     0.788050000000     0.631730000000     0.0357718  
H104     H      0.943100000000     0.929230000000     0.686360000000     0.0304776  
H105     H      0.000260000000     0.865860000000     0.280230000000     0.0223625  
H106     H      0.002570000000     0.785660000000     0.365800000000     0.0286412  
H107     H      0.019750000000     0.631430000000     0.223190000000     0.0248484  
H108     H      0.958170000000     0.682170000000     0.081410000000     0.0231675  
H109     H      0.018850000000     0.366810000000     0.230220000000     0.0264673  
H110     H      0.011930000000     0.285180000000     0.145450000000     0.0268489  
H111     H      0.041030000000     0.132670000000     0.286950000000     0.0289774  
H112     H      0.998140000000     0.186200000000     0.435570000000     0.0152222  
N1       N      0.508570000000     0.208650000000     0.307120000000    -0.245649   
N2       N      0.492820000000     0.309410000000     0.212060000000    -0.246767   
N3       N      0.496980000000     0.709400000000     0.202660000000    -0.22976    
N4       N      0.495570000000     0.806860000000     0.299550000000    -0.238161   
N5       N      0.499670000000     0.801990000000     0.702250000000    -0.203647   
N6       N      0.500370000000     0.700570000000     0.798730000000    -0.205547   
N7       N      0.508630000000     0.301350000000     0.805210000000    -0.235753   
N8       N      0.521320000000     0.205110000000     0.708000000000    -0.230153   
N9       N      0.803930000000     0.300780000000     0.484800000000    -0.232431   
N10      N      0.708540000000     0.200360000000     0.479150000000    -0.247048   
N11      N      0.703750000000     0.800100000000     0.490440000000    -0.233625   
N12      N      0.800180000000     0.700740000000     0.491690000000    -0.214529   
N13      N      0.304200000000     0.208920000000     0.497110000000    -0.232792   
N14      N      0.205690000000     0.305760000000     0.500060000000    -0.244627   
N15      N      0.302020000000     0.808160000000     0.508290000000    -0.212742   
N16      N      0.201620000000     0.712510000000     0.504070000000    -0.233465   
N17      N      0.710430000000     0.491820000000     0.200670000000    -0.237005   
N18      N      0.809550000000     0.488810000000     0.296570000000    -0.235578   
N19      N      0.209290000000     0.482360000000     0.310430000000    -0.243106   
N20      N      0.304750000000     0.486130000000     0.208300000000    -0.243162   
N21      N      0.297120000000     0.475680000000     0.809570000000    -0.234053   
N22      N      0.196400000000     0.479310000000     0.715400000000    -0.228327   
N23      N      0.699770000000     0.507010000000     0.800080000000    -0.211432   
N24      N      0.796090000000     0.510530000000     0.699090000000    -0.207546   
N25      N      0.804430000000     0.804390000000     0.993610000000    -0.208952   
N26      N      0.707430000000     0.703060000000     0.993990000000    -0.204744   
N27      N      0.803330000000     0.206020000000     0.017420000000    -0.236784   
N28      N      0.704790000000     0.301960000000     0.017910000000    -0.237432   
N29      N      0.303070000000     0.706310000000     0.019490000000    -0.226669   
N30      N      0.206890000000     0.804630000000     0.024160000000    -0.237249   
N31      N      0.304410000000     0.304580000000     0.036750000000    -0.244349   
N32      N      0.203590000000     0.208010000000     0.037590000000    -0.242402   
N33      N      0.808760000000     0.005150000000     0.803280000000    -0.206871   
N34      N      0.707770000000     0.005540000000     0.708080000000    -0.226911   
N35      N      0.308910000000     0.006560000000     0.707460000000    -0.207344   
N36      N      0.212570000000     0.015660000000     0.806580000000    -0.226985   
N37      N      0.297790000000     0.017730000000     0.307880000000    -0.233314   
N38      N      0.198730000000     0.018960000000     0.211310000000    -0.250332   
N39      N      0.798750000000     0.014740000000     0.203360000000    -0.231449   
N40      N      0.700110000000     0.023540000000     0.300580000000    -0.249205   
N41      N      0.027560000000     0.211790000000     0.808850000000    -0.227407   
N42      N      0.019060000000     0.311910000000     0.715150000000    -0.232326   
N43      N      0.994570000000     0.709330000000     0.701750000000    -0.204906   
N44      N      0.999360000000     0.810830000000     0.798090000000    -0.203971   
N45      N      0.011080000000     0.702380000000     0.300900000000    -0.234939   
N46      N      0.008510000000     0.796390000000     0.199840000000    -0.236672   
N47      N      0.025940000000     0.202130000000     0.209410000000    -0.242494   
N48      N      0.031680000000     0.298410000000     0.310680000000    -0.24282    
O1       O      0.016790000000     0.175410000000     0.097480000000    -1.07533    
O2       O      0.008130000000     0.828550000000     0.088850000000    -0.80322    
O3       O      0.910180000000     0.004770000000     0.175450000000    -1.04043    
O4       O      0.088830000000     0.014360000000     0.177290000000    -1.11924    
O5       O      0.173480000000     0.018490000000     0.098450000000    -1.08576    
O6       O      0.828690000000     0.010930000000     0.091860000000    -0.77746    
O7       O      0.002950000000     0.908880000000     0.173000000000    -1.02701    
O8       O      0.017000000000     0.091060000000     0.177460000000    -1.0692     
O9       O      0.074570000000     0.940740000000     0.075520000000    -2.12002    
O10      O      0.940070000000     0.075640000000     0.076060000000    -2.13486    
O11      O      0.931970000000     0.932260000000     0.076410000000    -0.871784   
O12      O      0.019090000000     0.019590000000     0.019170000000    -2.60816    
O13      O      0.001970000000     0.837580000000     0.911830000000    -0.702085   
O14      O      0.019040000000     0.180180000000     0.919180000000    -0.971639   
O15      O      0.832680000000     0.917340000000     0.998480000000    -0.713347   
O16      O      0.177010000000     0.915660000000     0.015570000000    -0.988503   
O17      O      0.175860000000     0.095500000000     0.025670000000    -1.06154    
O18      O      0.832300000000     0.094980000000     0.013610000000    -0.77199    
O19      O      0.921110000000     0.010580000000     0.831830000000    -0.571211   
O20      O      0.099940000000     0.014270000000     0.832960000000    -0.615986   
O21      O      0.837570000000     0.003230000000     0.914630000000    -0.718201   
O22      O      0.179540000000     0.012670000000     0.917820000000    -0.956127   
O23      O      0.916510000000     0.834340000000     0.997520000000    -0.725676   
O24      O      0.914530000000     0.177880000000     0.011160000000    -0.990876   
O25      O      0.092730000000     0.176010000000     0.027470000000    -1.09304    
O26      O      0.095220000000     0.832890000000     0.014110000000    -0.767271   
O27      O      0.006850000000     0.922510000000     0.831240000000    -0.575354   
O28      O      0.017820000000     0.100180000000     0.834100000000    -0.627861   
O29      O      0.077400000000     0.077700000000     0.945260000000    -2.04162    
O30      O      0.946130000000     0.947120000000     0.940760000000    -1.58613    
O31      O      0.934550000000     0.076270000000     0.933280000000    -1.21946    
O32      O      0.075870000000     0.934940000000     0.933060000000    -1.22026    
O33      O      0.023280000000     0.330840000000     0.422310000000    -1.07218    
O34      O      0.008900000000     0.677310000000     0.413100000000    -0.790916   
O35      O      0.919670000000     0.497430000000     0.331220000000    -1.04767    
O36      O      0.098390000000     0.487460000000     0.339600000000    -1.1168     
O37      O      0.179510000000     0.491230000000     0.422650000000    -1.03834    
O38      O      0.833630000000     0.493370000000     0.409430000000    -0.782244   
O39      O      0.010160000000     0.591920000000     0.333100000000    -1.0422     
O40      O      0.023780000000     0.410790000000     0.338560000000    -1.07669    
O41      O      0.077320000000     0.567610000000     0.436210000000    -2.1034     
O42      O      0.943760000000     0.430630000000     0.434600000000    -2.14278    
O43      O      0.934460000000     0.572850000000     0.427140000000    -0.872335   
O44      O      0.019100000000     0.490230000000     0.493310000000    -2.59926    
O45      O      0.995810000000     0.677120000000     0.590000000000    -0.699256   
O46      O      0.010090000000     0.337120000000     0.602820000000    -0.96376    
O47      O      0.831230000000     0.589270000000     0.497270000000    -0.73826    
O48      O      0.174830000000     0.599510000000     0.507320000000    -0.944094   
O49      O      0.176310000000     0.417450000000     0.497940000000    -1.05297    
O50      O      0.831040000000     0.412730000000     0.491110000000    -0.762507   
O51      O      0.909400000000     0.508400000000     0.673450000000    -0.58978    
O52      O      0.086870000000     0.497310000000     0.682670000000    -0.632359   
O53      O      0.830050000000     0.507570000000     0.587250000000    -0.70148    
O54      O      0.171790000000     0.494470000000     0.603320000000    -0.938917   
O55      O      0.912850000000     0.673950000000     0.498790000000    -0.72448    
O56      O      0.914430000000     0.331350000000     0.498230000000    -0.973021   
O57      O      0.094350000000     0.334820000000     0.500610000000    -1.08774    
O58      O      0.090870000000     0.679260000000     0.496780000000    -0.770211   
O59      O      0.997680000000     0.596380000000     0.675570000000    -0.594023   
O60      O      0.006140000000     0.421440000000     0.682770000000    -0.650964   
O61      O      0.072170000000     0.437040000000     0.572130000000    -2.02395    
O62      O      0.939850000000     0.565910000000     0.563650000000    -1.60058    
O63      O      0.929340000000     0.436270000000     0.576770000000    -1.25803    
O64      O      0.069630000000     0.579310000000     0.578630000000    -1.2432     
O65      O      0.673730000000     0.016660000000     0.413140000000    -1.06812    
O66      O      0.328120000000     0.013080000000     0.418840000000    -0.801425   
O67      O      0.499200000000     0.917190000000     0.332280000000    -1.06607    
O68      O      0.510490000000     0.096520000000     0.334780000000    -1.08983    
O69      O      0.517180000000     0.177500000000     0.417760000000    -1.08407    
O70      O      0.502640000000     0.832250000000     0.411950000000    -0.791364   
O71      O      0.409660000000     0.012100000000     0.335010000000    -1.02874    
O72      O      0.589560000000     0.019790000000     0.333780000000    -1.12959    
O73      O      0.440460000000     0.078140000000     0.436530000000    -2.16105    
O74      O      0.573750000000     0.941260000000     0.431910000000    -2.11004    
O75      O      0.430470000000     0.935870000000     0.430790000000    -0.878142   
O76      O      0.518680000000     0.019310000000     0.491420000000    -2.6147     
O77      O      0.335700000000     0.002810000000     0.595170000000    -0.727547   
O78      O      0.678340000000     0.006990000000     0.595190000000    -0.920261   
O79      O      0.414450000000     0.834600000000     0.505640000000    -0.734627   
O80      O      0.415980000000     0.179550000000     0.498130000000    -0.954004   
O81      O      0.596240000000     0.173610000000     0.488100000000    -1.08552    
O82      O      0.592280000000     0.830570000000     0.490630000000    -0.762311   
O83      O      0.505300000000     0.914910000000     0.675170000000    -0.567273   
O84      O      0.516400000000     0.093430000000     0.679360000000    -0.624333   
O85      O      0.499300000000     0.833250000000     0.590410000000    -0.698708   
O86      O      0.514550000000     0.175680000000     0.596960000000    -0.985015   
O87      O      0.332540000000     0.919480000000     0.508590000000    -0.746761   
O88      O      0.676080000000     0.911650000000     0.497120000000    -0.971096   
O89      O      0.676270000000     0.089900000000     0.488240000000    -1.10235    
O90      O      0.332660000000     0.097600000000     0.500780000000    -0.778188   
O91      O      0.420160000000     0.005900000000     0.677120000000    -0.58864    
O92      O      0.596510000000     0.006910000000     0.677670000000    -0.633836   
O93      O      0.577440000000     0.074010000000     0.567310000000    -2.02       
O94      O      0.444480000000     0.944680000000     0.566600000000    -1.59782    
O95      O      0.573160000000     0.930440000000     0.574630000000    -1.2298     
O96      O      0.434580000000     0.074510000000     0.578510000000    -1.2445     
O97      O      0.334090000000     0.415730000000     0.027010000000    -1.07469    
O98      O      0.677760000000     0.414030000000     0.010310000000    -0.787048   
O99      O      0.502680000000     0.331080000000     0.916430000000    -1.02635    
O100     O      0.493150000000     0.336280000000     0.099080000000    -1.08018    
O101     O      0.493630000000     0.420320000000     0.178580000000    -1.1148     
O102     O      0.500460000000     0.412240000000     0.831980000000    -0.802757   
O103     O      0.594240000000     0.332950000000     0.009290000000    -1.05913    
O104     O      0.415630000000     0.333080000000     0.023980000000    -1.098      
O105     O      0.568390000000     0.435170000000     0.076410000000    -2.14408    
O106     O      0.431370000000     0.431860000000     0.944110000000    -2.13453    
O107     O      0.573790000000     0.428200000000     0.933800000000    -0.872072   
O108     O      0.489980000000     0.490830000000     0.019590000000    -2.61259    
O109     O      0.674640000000     0.591080000000     0.996000000000    -0.707764   
O110     O      0.331760000000     0.595120000000     0.011700000000    -0.967111   
O111     O      0.588250000000     0.504210000000     0.831420000000    -0.726317   
O112     O      0.598510000000     0.499760000000     0.174600000000    -0.984251   
O113     O      0.417230000000     0.494130000000     0.178280000000    -1.07039    
O114     O      0.409480000000     0.486660000000     0.834640000000    -0.760456   
O115     O      0.501610000000     0.674050000000     0.912320000000    -0.563184   
O116     O      0.498770000000     0.680050000000     0.091470000000    -0.615586   
O117     O      0.501890000000     0.588510000000     0.832080000000    -0.704676   
O118     O      0.502150000000     0.598370000000     0.175060000000    -0.99592    
O119     O      0.673480000000     0.503570000000     0.912990000000    -0.7314     
O120     O      0.329040000000     0.490400000000     0.919150000000    -0.991218   
O121     O      0.335260000000     0.491320000000     0.096680000000    -1.09711    
O122     O      0.679120000000     0.496050000000     0.090170000000    -0.777488   
O123     O      0.593620000000     0.675690000000     0.999000000000    -0.554749   
O124     O      0.414080000000     0.678190000000     0.011400000000    -0.614023   
O125     O      0.435000000000     0.568920000000     0.074980000000    -2.04749    
O126     O      0.563120000000     0.564550000000     0.941580000000    -1.58213    
O127     O      0.433320000000     0.574500000000     0.932050000000    -1.22394    
O128     O      0.577690000000     0.577470000000     0.070580000000    -1.21559    
S1       S      0.495160000000     0.404810000000     0.312340000000    -0.00166953 
S2       S      0.451430000000     0.900170000000     0.207440000000    -0.00939694 
S3       S      0.478240000000     0.605920000000     0.700380000000    -0.008784   
S4       S      0.564550000000     0.299460000000     0.616910000000    -0.00755827 
S5       S      0.808670000000     0.104620000000     0.474220000000    -0.00058588 
S6       S      0.708840000000     0.610050000000     0.442330000000    -0.0115569  
S7       S      0.126230000000     0.223240000000     0.575490000000     0.00740488 
S8       S      0.105370000000     0.811580000000     0.514260000000    -0.00769794 
S9       S      0.906920000000     0.482450000000     0.198270000000    -0.00996439 
S10      S      0.203090000000     0.495370000000     0.114310000000    -0.00126809 
S11      S      0.100090000000     0.480700000000     0.816020000000    -0.016294   
S12      S      0.696950000000     0.522850000000     0.603660000000    -0.00844912 
S13      S      0.807500000000     0.607600000000     0.002430000000    -0.012891   
S14      S      0.610570000000     0.206920000000     0.053130000000    -0.0100237  
S15      S      0.300030000000     0.896660000000     0.068180000000    -0.00204224 
S16      S      0.108140000000     0.308340000000     0.043410000000     0.00243988 
S17      S      0.613710000000     0.981670000000     0.807370000000    -0.00486404 
S18      S      0.309370000000     0.045240000000     0.900580000000    -0.0102394  
S19      S      0.105810000000     0.977720000000     0.305510000000    -0.00254065 
S20      S      0.605710000000     0.051680000000     0.203570000000    -0.00253108 
S21      S      0.026800000000     0.408610000000     0.815040000000     0.000661073
S22      S      0.005560000000     0.906050000000     0.697760000000    -0.0119492  
S23      S      0.020180000000     0.696180000000     0.104610000000    -0.00854184 
S24      S      0.056340000000     0.200100000000     0.403910000000     0.00187461 
Tb1      Tb     0.001340000000     0.002000000000     0.116520000000     6.51668    
Tb2      Tb     0.006920000000     0.894930000000     0.005520000000     4.32654    
Tb3      Tb     0.004340000000     0.117910000000     0.006670000000     6.542      
Tb4      Tb     0.894400000000     0.007480000000     0.006630000000     4.26304    
Tb5      Tb     0.117490000000     0.005160000000     0.006750000000     6.4743     
Tb6      Tb     0.010890000000     0.011360000000     0.893920000000     3.08428    
Tb7      Tb     0.007130000000     0.502660000000     0.394570000000     6.55181    
Tb8      Tb     0.004560000000     0.615070000000     0.500000000000     4.27614    
Tb9      Tb     0.003700000000     0.392420000000     0.509520000000     6.48837    
Tb10     Tb     0.893230000000     0.500700000000     0.498300000000     4.27995    
Tb11     Tb     0.116520000000     0.507110000000     0.510530000000     6.28318    
Tb12     Tb     0.002440000000     0.504650000000     0.616800000000     3.23796    
Tb13     Tb     0.501120000000     0.005760000000     0.393490000000     6.58789    
Tb14     Tb     0.393850000000     0.008730000000     0.503470000000     4.40401    
Tb15     Tb     0.616820000000     0.002060000000     0.504210000000     6.41155    
Tb16     Tb     0.504830000000     0.894180000000     0.499630000000     4.28475    
Tb17     Tb     0.505330000000     0.117440000000     0.506700000000     6.49293    
Tb18     Tb     0.509480000000     0.006740000000     0.615760000000     3.12093    
Tb19     Tb     0.504580000000     0.392440000000     0.006350000000     6.53021    
Tb20     Tb     0.614390000000     0.500620000000     0.004510000000     4.31815    
Tb21     Tb     0.391810000000     0.504950000000     0.006000000000     6.52634    
Tb22     Tb     0.499490000000     0.498490000000     0.894200000000     4.30247    
Tb23     Tb     0.506860000000     0.507640000000     0.117000000000     6.62287    
Tb24     Tb     0.501340000000     0.615890000000     0.005110000000     3.01153    


