data_structure

_audit_creation_method RASPA-1.0
_audit_creation_date 2023-5-19
_audit_author_name 'Poobodin Mano'

_cell_length_a    32.6926
_cell_length_b    32.7172
_cell_length_c    32.7267
_cell_angle_alpha 90
_cell_angle_beta  90
_cell_angle_gamma 90
_cell_volume      35004.8

_symmetry_cell_setting          triclinic
_symmetry_space_group_name_Hall 'P 1'
_symmetry_space_group_name_H-M  'P 1'
_symmetry_Int_Tables_number     1

_symmetry_equiv_pos_as_xyz 'x,y,z'

loop_
_atom_site_label
_atom_site_type_symbol
_atom_site_fract_x
_atom_site_fract_y
_atom_site_fract_z
_atom_site_charge
C1       C      0.040510000000     0.121580000000     0.119390000000     0.670323   
C2       C      0.027310000000     0.932030000000     0.122230000000     0.634147   
C3       C      0.929770000000     0.032980000000     0.121530000000     0.627107   
C4       C      0.119760000000     0.039900000000     0.119780000000     0.681453   
C5       C      0.021500000000     0.932650000000     0.934390000000     0.516312   
C6       C      0.034000000000     0.120580000000     0.930400000000     0.607474   
C7       C      0.930670000000     0.934850000000     0.024870000000     0.536446   
C8       C      0.118860000000     0.930100000000     0.036090000000     0.648435   
C9       C      0.121290000000     0.119190000000     0.039490000000     0.657346   
C10      C      0.932180000000     0.123280000000     0.033400000000     0.647223   
C11      C      0.932800000000     0.024870000000     0.933770000000     0.525254   
C12      C      0.121200000000     0.029490000000     0.930970000000     0.600914   
C13      C      0.039760000000     0.433330000000     0.432460000000     0.672332   
C14      C      0.030650000000     0.623180000000     0.433430000000     0.634988   
C15      C      0.931360000000     0.524840000000     0.431050000000     0.638602   
C16      C      0.121140000000     0.513500000000     0.434410000000     0.677735   
C17      C      0.022370000000     0.618740000000     0.621150000000     0.515258   
C18      C      0.030810000000     0.430440000000     0.621160000000     0.609785   
C19      C      0.933070000000     0.620310000000     0.528690000000     0.544667   
C20      C      0.121630000000     0.621470000000     0.522300000000     0.646802   
C21      C      0.118910000000     0.432520000000     0.512810000000     0.673666   
C22      C      0.929730000000     0.432240000000     0.516780000000     0.644214   
C23      C      0.931500000000     0.529140000000     0.618960000000     0.521899   
C24      C      0.119640000000     0.517920000000     0.623330000000     0.614469   
C25      C      0.619600000000     0.041310000000     0.433610000000     0.683212   
C26      C      0.429810000000     0.030460000000     0.431840000000     0.629567   
C27      C      0.528830000000     0.931650000000     0.431820000000     0.640271   
C28      C      0.536620000000     0.121570000000     0.433260000000     0.683845   
C29      C      0.432840000000     0.023520000000     0.619610000000     0.525633   
C30      C      0.621030000000     0.032800000000     0.622460000000     0.60041    
C31      C      0.433000000000     0.933240000000     0.528600000000     0.546613   
C32      C      0.429620000000     0.121410000000     0.518870000000     0.647509   
C33      C      0.618740000000     0.121140000000     0.512790000000     0.672612   
C34      C      0.621470000000     0.932090000000     0.519590000000     0.643737   
C35      C      0.523670000000     0.933530000000     0.619630000000     0.521066   
C36      C      0.531320000000     0.121770000000     0.622310000000     0.615247   
C37      C      0.433390000000     0.432150000000     0.041340000000     0.677337   
C38      C      0.623150000000     0.434460000000     0.029100000000     0.637323   
C39      C      0.523780000000     0.432310000000     0.931190000000     0.640982   
C40      C      0.516780000000     0.433810000000     0.121140000000     0.688816   
C41      C      0.617230000000     0.622120000000     0.022120000000     0.518047   
C42      C      0.428950000000     0.620920000000     0.033930000000     0.609985   
C43      C      0.618080000000     0.530940000000     0.931820000000     0.538899   
C44      C      0.622240000000     0.521850000000     0.119980000000     0.659263   
C45      C      0.433160000000     0.512370000000     0.121500000000     0.67028    
C46      C      0.429830000000     0.517180000000     0.932560000000     0.654165   
C47      C      0.525450000000     0.620220000000     0.932830000000     0.519679   
C48      C      0.519170000000     0.623020000000     0.121050000000     0.617646   
C49      C      0.514790000000     0.401720000000     0.153320000000    -0.208207   
C50      C      0.515380000000     0.360000000000     0.142820000000     0.0821913  
C51      C      0.517170000000     0.329840000000     0.173120000000    -0.10665    
C52      C      0.518410000000     0.340540000000     0.214750000000     0.0521818  
C53      C      0.516600000000     0.382200000000     0.225270000000    -0.10671    
C54      C      0.514770000000     0.412380000000     0.194990000000     0.0828465  
C55      C      0.522560000000     0.308470000000     0.246950000000    -0.00905406 
C56      C      0.501430000000     0.271150000000     0.243740000000    -0.0360834  
C57      C      0.505820000000     0.240890000000     0.273670000000    -0.0361503  
C58      C      0.531500000000     0.247080000000     0.307640000000    -0.00884218 
C59      C      0.552620000000     0.284410000000     0.310860000000    -0.0361555  
C60      C      0.548220000000     0.314670000000     0.280930000000    -0.0358877  
C61      C      0.535660000000     0.214970000000     0.339810000000     0.0518019  
C62      C      0.537310000000     0.173310000000     0.329230000000    -0.106238   
C63      C      0.539010000000     0.143090000000     0.359470000000     0.0814669  
C64      C      0.539010000000     0.153690000000     0.401150000000    -0.206072   
C65      C      0.538660000000     0.195400000000     0.411710000000     0.0818116  
C66      C      0.536990000000     0.225610000000     0.381450000000    -0.106044   
C67      C      0.528760000000     0.900080000000     0.399670000000    -0.196789   
C68      C      0.530530000000     0.858430000000     0.410060000000     0.0750061  
C69      C      0.529050000000     0.828570000000     0.379720000000    -0.10263    
C70      C      0.525840000000     0.839760000000     0.338430000000     0.0520722  
C71      C      0.524570000000     0.881350000000     0.327970000000    -0.105671   
C72      C      0.526010000000     0.911230000000     0.358280000000     0.0811413  
C73      C      0.523490000000     0.808120000000     0.306350000000    -0.00872617 
C74      C      0.498550000000     0.773590000000     0.311750000000    -0.0357656  
C75      C      0.496310000000     0.743710000000     0.281480000000    -0.0363848  
C76      C      0.518980000000     0.747850000000     0.245270000000    -0.00766173 
C77      C      0.543810000000     0.782450000000     0.239810000000    -0.0362105  
C78      C      0.546040000000     0.812330000000     0.270080000000    -0.0356075  
C79      C      0.517320000000     0.715840000000     0.213510000000     0.0501049  
C80      C      0.519170000000     0.674390000000     0.224440000000    -0.103235   
C81      C      0.519170000000     0.644180000000     0.194410000000     0.0791426  
C82      C      0.517350000000     0.654870000000     0.152860000000    -0.185641   
C83      C      0.514740000000     0.696350000000     0.142000000000     0.068072   
C84      C      0.514760000000     0.726540000000     0.172050000000    -0.0980049  
C85      C      0.522520000000     0.901130000000     0.651630000000    -0.145049   
C86      C      0.522440000000     0.859470000000     0.640870000000     0.0523827  
C87      C      0.522560000000     0.829050000000     0.671010000000    -0.0864314  
C88      C      0.522750000000     0.839410000000     0.712760000000     0.0400392  
C89      C      0.522380000000     0.881070000000     0.723490000000    -0.0843046  
C90      C      0.522260000000     0.911490000000     0.693370000000     0.0489518  
C91      C      0.523630000000     0.806990000000     0.744940000000    -0.00367155 
C92      C      0.500840000000     0.770770000000     0.740450000000    -0.0364965  
C93      C      0.501700000000     0.740440000000     0.770660000000    -0.0365862  
C94      C      0.525360000000     0.745470000000     0.806240000000    -0.00365651 
C95      C      0.548230000000     0.781640000000     0.810680000000    -0.0363467  
C96      C      0.547390000000     0.811940000000     0.780470000000    -0.0363024  
C97      C      0.525980000000     0.713300000000     0.838670000000     0.0399501  
C98      C      0.526680000000     0.671550000000     0.828340000000    -0.0863895  
C99      C      0.526830000000     0.641420000000     0.858770000000     0.0520886  
C100     C      0.526180000000     0.652210000000     0.900410000000    -0.144777   
C101     C      0.525740000000     0.693980000000     0.910730000000     0.0486455  
C102     C      0.525660000000     0.724080000000     0.880300000000    -0.0842334  
C103     C      0.533080000000     0.153580000000     0.654150000000    -0.184982   
C104     C      0.530750000000     0.195130000000     0.643530000000     0.0785817  
C105     C      0.530940000000     0.225130000000     0.673760000000    -0.102831   
C106     C      0.533520000000     0.214170000000     0.715160000000     0.0499975  
C107     C      0.536510000000     0.172710000000     0.725770000000    -0.0977916  
C108     C      0.536310000000     0.142680000000     0.695570000000     0.0678347  
C109     C      0.532270000000     0.245900000000     0.747210000000    -0.00751522 
C110     C      0.554600000000     0.282280000000     0.742660000000    -0.0362741  
C111     C      0.552790000000     0.312510000000     0.772620000000    -0.0356508  
C112     C      0.528620000000     0.306870000000     0.807650000000    -0.00867862 
C113     C      0.506430000000     0.270430000000     0.812270000000    -0.0355     
C114     C      0.508220000000     0.240220000000     0.782310000000    -0.0361375  
C115     C      0.526620000000     0.338930000000     0.839310000000     0.0522746  
C116     C      0.522650000000     0.380170000000     0.828180000000    -0.102658   
C117     C      0.521310000000     0.410510000000     0.858040000000     0.0752501  
C118     C      0.523990000000     0.400150000000     0.899640000000    -0.196937   
C119     C      0.527590000000     0.358810000000     0.910740000000     0.0814303  
C120     C      0.528890000000     0.328500000000     0.880850000000    -0.105699   
C121     C      0.897480000000     0.400680000000     0.512400000000    -0.189722   
C122     C      0.856200000000     0.411980000000     0.508060000000     0.0724471  
C123     C      0.825730000000     0.382230000000     0.504590000000    -0.099448   
C124     C      0.835770000000     0.340450000000     0.505320000000     0.0498554  
C125     C      0.877070000000     0.329140000000     0.509180000000    -0.101882   
C126     C      0.907570000000     0.358880000000     0.512690000000     0.0780175  
C127     C      0.803220000000     0.308800000000     0.502960000000    -0.00720346 
C128     C      0.766500000000     0.313690000000     0.524750000000    -0.0364234  
C129     C      0.736300000000     0.283510000000     0.523550000000    -0.0352831  
C130     C      0.742040000000     0.247700000000     0.500490000000    -0.0091184  
C131     C      0.778600000000     0.242980000000     0.478350000000    -0.0353677  
C132     C      0.808840000000     0.273180000000     0.479570000000    -0.0364065  
C133     C      0.710440000000     0.215000000000     0.500640000000     0.0525289  
C134     C      0.668620000000     0.224960000000     0.499520000000    -0.106492   
C135     C      0.638880000000     0.194430000000     0.502450000000     0.0812746  
C136     C      0.650230000000     0.153170000000     0.506620000000    -0.204489   
C137     C      0.692060000000     0.143090000000     0.506390000000     0.081332   
C138     C      0.721800000000     0.173650000000     0.503480000000    -0.106204   
C139     C      0.901120000000     0.652480000000     0.529520000000    -0.158037   
C140     C      0.911900000000     0.694090000000     0.530520000000     0.0566416  
C141     C      0.881760000000     0.724380000000     0.529610000000    -0.090169   
C142     C      0.840130000000     0.713810000000     0.527650000000     0.0427545  
C143     C      0.829310000000     0.672230000000     0.527230000000    -0.0909921  
C144     C      0.859410000000     0.641940000000     0.528200000000     0.0569206  
C145     C      0.808120000000     0.745980000000     0.525550000000    -0.00462241 
C146     C      0.810980000000     0.781310000000     0.549820000000    -0.0370592  
C147     C      0.780870000000     0.811570000000     0.547750000000    -0.0349195  
C148     C      0.747220000000     0.807230000000     0.521340000000    -0.00794462 
C149     C      0.744410000000     0.771930000000     0.497010000000    -0.0352451  
C150     C      0.774500000000     0.741670000000     0.499100000000    -0.0371936  
C151     C      0.715020000000     0.839260000000     0.519460000000     0.0504547  
C152     C      0.725570000000     0.880900000000     0.520340000000    -0.102312   
C153     C      0.695260000000     0.911010000000     0.519710000000     0.0787232  
C154     C      0.653650000000     0.900200000000     0.518250000000    -0.189717   
C155     C      0.643130000000     0.858540000000     0.516740000000     0.0725256  
C156     C      0.673460000000     0.828440000000     0.517340000000    -0.0995431  
C157     C      0.150440000000     0.400540000000     0.506660000000    -0.204243   
C158     C      0.139100000000     0.359310000000     0.502150000000     0.0811135  
C159     C      0.168850000000     0.328780000000     0.499380000000    -0.106508   
C160     C      0.210650000000     0.338720000000     0.501010000000     0.0525352  
C161     C      0.222020000000     0.380050000000     0.504110000000    -0.106479   
C162     C      0.192270000000     0.410610000000     0.506860000000     0.0819635  
C163     C      0.242210000000     0.306010000000     0.501220000000    -0.0092096  
C164     C      0.236190000000     0.270250000000     0.524280000000    -0.035574   
C165     C      0.266360000000     0.240080000000     0.525880000000    -0.0364889  
C166     C      0.303320000000     0.244920000000     0.504480000000    -0.0077058  
C167     C      0.309220000000     0.280490000000     0.481090000000    -0.0364808  
C168     C      0.279000000000     0.310700000000     0.479470000000    -0.03573    
C169     C      0.335800000000     0.213260000000     0.507230000000     0.0500534  
C170     C      0.325730000000     0.171500000000     0.506360000000    -0.100068   
C171     C      0.356150000000     0.141720000000     0.510030000000     0.072678   
C172     C      0.397400000000     0.153000000000     0.514710000000    -0.191433   
C173     C      0.407510000000     0.194780000000     0.515230000000     0.0790207  
C174     C      0.377060000000     0.224550000000     0.511530000000    -0.102969   
C175     C      0.153760000000     0.653380000000     0.521280000000    -0.192003   
C176     C      0.195390000000     0.642570000000     0.522110000000     0.0796142  
C177     C      0.225670000000     0.672700000000     0.522590000000    -0.103597   
C178     C      0.215060000000     0.714330000000     0.522210000000     0.0507669  
C179     C      0.173470000000     0.725150000000     0.520860000000    -0.100265   
C180     C      0.143170000000     0.695040000000     0.520380000000     0.0731037  
C181     C      0.247240000000     0.746370000000     0.523680000000    -0.00845244 
C182     C      0.281370000000     0.741910000000     0.549440000000    -0.0350389  
C183     C      0.311480000000     0.772170000000     0.551090000000    -0.0373965  
C184     C      0.308110000000     0.807610000000     0.527060000000    -0.00471605 
C185     C      0.274010000000     0.812060000000     0.501270000000    -0.0374909  
C186     C      0.243930000000     0.781780000000     0.499590000000    -0.0350931  
C187     C      0.340130000000     0.839770000000     0.528680000000     0.0429224  
C188     C      0.381780000000     0.829180000000     0.529600000000    -0.0911841  
C189     C      0.411910000000     0.859470000000     0.530100000000     0.0572101  
C190     C      0.401080000000     0.901080000000     0.529730000000    -0.158962   
C191     C      0.359360000000     0.911630000000     0.529420000000     0.0573861  
C192     C      0.329270000000     0.881330000000     0.528870000000    -0.0908156  
C193     C      0.654440000000     0.519650000000     0.151470000000    -0.198626   
C194     C      0.643920000000     0.518800000000     0.193090000000     0.0850811  
C195     C      0.674250000000     0.518040000000     0.222970000000    -0.107008   
C196     C      0.715730000000     0.518130000000     0.211890000000     0.0530454  
C197     C      0.726330000000     0.518260000000     0.170310000000    -0.102955   
C198     C      0.695970000000     0.519000000000     0.140360000000     0.0771677  
C199     C      0.747780000000     0.518880000000     0.243740000000    -0.00884207 
C200     C      0.743460000000     0.544370000000     0.278000000000    -0.035698   
C201     C      0.773470000000     0.545110000000     0.308210000000    -0.0360993  
C202     C      0.808420000000     0.520420000000     0.304720000000    -0.00839097 
C203     C      0.812910000000     0.495100000000     0.270360000000    -0.0359377  
C204     C      0.782830000000     0.494320000000     0.240120000000    -0.0357198  
C205     C      0.840000000000     0.521110000000     0.336990000000     0.0516752  
C206     C      0.828590000000     0.520780000000     0.378340000000    -0.102337   
C207     C      0.858260000000     0.521950000000     0.408870000000     0.0746314  
C208     C      0.900000000000     0.523540000000     0.398660000000    -0.195248   
C209     C      0.911400000000     0.523700000000     0.357240000000     0.0800471  
C210     C      0.881660000000     0.522450000000     0.326700000000    -0.104959   
C211     C      0.153380000000     0.507550000000     0.402770000000    -0.204216   
C212     C      0.194840000000     0.504300000000     0.413900000000     0.0798994  
C213     C      0.225360000000     0.500960000000     0.384050000000    -0.105053   
C214     C      0.215320000000     0.500700000000     0.342230000000     0.051002   
C215     C      0.173780000000     0.502910000000     0.331140000000    -0.104987   
C216     C      0.143240000000     0.506280000000     0.360980000000     0.0794713  
C217     C      0.248050000000     0.499340000000     0.310340000000    -0.00854265 
C218     C      0.284400000000     0.521850000000     0.315290000000    -0.0360036  
C219     C      0.314640000000     0.521660000000     0.284990000000    -0.0360967  
C220     C      0.309460000000     0.498950000000     0.248840000000    -0.00821515 
C221     C      0.273260000000     0.476140000000     0.244020000000    -0.0362814  
C222     C      0.242980000000     0.476340000000     0.274350000000    -0.0360913  
C223     C      0.341280000000     0.499940000000     0.216020000000     0.0503034  
C224     C      0.383180000000     0.500360000000     0.225890000000    -0.104057   
C225     C      0.412960000000     0.503490000000     0.195270000000     0.0779942  
C226     C      0.401670000000     0.506310000000     0.153860000000    -0.200439   
C227     C      0.359800000000     0.504790000000     0.143890000000     0.0778797  
C228     C      0.330040000000     0.501680000000     0.174540000000    -0.103974   
C229     C      0.151080000000     0.513980000000     0.655430000000    -0.184017   
C230     C      0.192830000000     0.513680000000     0.645190000000     0.0777029  
C231     C      0.222520000000     0.510780000000     0.675640000000    -0.102319   
C232     C      0.211060000000     0.508140000000     0.716900000000     0.0496176  
C233     C      0.169350000000     0.507850000000     0.727130000000    -0.0975429  
C234     C      0.139650000000     0.510700000000     0.696710000000     0.0673282  
C235     C      0.242540000000     0.506860000000     0.749270000000    -0.00738026 
C236     C      0.277500000000     0.482290000000     0.744830000000    -0.0363853  
C237     C      0.307700000000     0.482120000000     0.774940000000    -0.0354996  
C238     C      0.303490000000     0.506540000000     0.810000000000    -0.00863247 
C239     C      0.268360000000     0.530830000000     0.814540000000    -0.0353044  
C240     C      0.238180000000     0.530970000000     0.784490000000    -0.0362055  
C241     C      0.335980000000     0.507480000000     0.841390000000     0.0526942  
C242     C      0.377330000000     0.509360000000     0.829890000000    -0.102372   
C243     C      0.407880000000     0.512070000000     0.859510000000     0.0768271  
C244     C      0.397670000000     0.513020000000     0.901210000000    -0.196255   
C245     C      0.356320000000     0.510440000000     0.912690000000     0.0833215  
C246     C      0.325810000000     0.507690000000     0.883070000000    -0.105421   
C247     C      0.898960000000     0.531240000000     0.650760000000    -0.145768   
C248     C      0.909210000000     0.531690000000     0.692530000000     0.0494945  
C249     C      0.878720000000     0.532820000000     0.722530000000    -0.0846742  
C250     C      0.837080000000     0.533550000000     0.711670000000     0.040148   
C251     C      0.826810000000     0.533550000000     0.669910000000    -0.0865566  
C252     C      0.857330000000     0.532410000000     0.639860000000     0.0525352  
C253     C      0.804620000000     0.533880000000     0.743820000000    -0.00363623 
C254     C      0.808930000000     0.510230000000     0.779480000000    -0.0366578  
C255     C      0.778680000000     0.510530000000     0.809740000000    -0.036215   
C256     C      0.743200000000     0.534460000000     0.805220000000    -0.00458392 
C257     C      0.738780000000     0.558000000000     0.769500000000    -0.0362923  
C258     C      0.769090000000     0.557730000000     0.739220000000    -0.0367544  
C259     C      0.711010000000     0.534660000000     0.837610000000     0.0414488  
C260     C      0.721840000000     0.534550000000     0.879220000000    -0.0884394  
C261     C      0.691770000000     0.533800000000     0.909670000000     0.0541337  
C262     C      0.649970000000     0.533050000000     0.899380000000    -0.153874   
C263     C      0.639110000000     0.533650000000     0.857750000000     0.0536538  
C264     C      0.669230000000     0.534470000000     0.827300000000    -0.0886938  
C265     C      0.649110000000     0.654570000000     0.020030000000    -0.146984   
C266     C      0.638290000000     0.696220000000     0.020450000000     0.0482664  
C267     C      0.668430000000     0.726650000000     0.019680000000    -0.0868522  
C268     C      0.710180000000     0.716280000000     0.018510000000     0.041397   
C269     C      0.720960000000     0.674660000000     0.017570000000    -0.0884648  
C270     C      0.690870000000     0.644240000000     0.018290000000     0.0525865  
C271     C      0.742410000000     0.748630000000     0.018810000000    -0.0114946  
C272     C      0.737600000000     0.784840000000     0.996090000000    -0.0291175  
C273     C      0.767920000000     0.815110000000     0.996490000000    -0.0287807  
C274     C      0.803850000000     0.809990000000     0.019630000000    -0.011979   
C275     C      0.808550000000     0.773830000000     0.042440000000    -0.0356216  
C276     C      0.778280000000     0.743590000000     0.042020000000    -0.0359205  
C277     C      0.836280000000     0.842140000000     0.020120000000     0.0427702  
C278     C      0.825980000000     0.883890000000     0.021290000000    -0.089773   
C279     C      0.856480000000     0.913950000000     0.022560000000     0.0534787  
C280     C      0.898140000000     0.903060000000     0.022690000000    -0.153774   
C281     C      0.908410000000     0.861300000000     0.021090000000     0.054063   
C282     C      0.877930000000     0.831300000000     0.019830000000    -0.0898208  
C283     C      0.655410000000     0.402970000000     0.031120000000    -0.196244   
C284     C      0.696840000000     0.414250000000     0.033360000000     0.0731906  
C285     C      0.727260000000     0.384460000000     0.035500000000    -0.10224    
C286     C      0.716880000000     0.342820000000     0.035520000000     0.0497148  
C287     C      0.675510000000     0.331500000000     0.033400000000    -0.105456   
C288     C      0.645070000000     0.361260000000     0.031190000000     0.0794783  
C289     C      0.749120000000     0.311220000000     0.037260000000    -0.00675418 
C290     C      0.784450000000     0.314960000000     0.013150000000    -0.0427184  
C291     C      0.814460000000     0.284720000000     0.014030000000    -0.042664   
C292     C      0.809770000000     0.250180000000     0.039110000000    -0.0064797  
C293     C      0.774600000000     0.246620000000     0.063520000000    -0.0367048  
C294     C      0.744540000000     0.276850000000     0.062580000000    -0.0366671  
C295     C      0.841150000000     0.217630000000     0.039130000000     0.0501604  
C296     C      0.882910000000     0.227670000000     0.038860000000    -0.104662   
C297     C      0.912490000000     0.197020000000     0.037380000000     0.081227   
C298     C      0.900900000000     0.155670000000     0.036150000000    -0.194501   
C299     C      0.859100000000     0.145620000000     0.037070000000     0.0747891  
C300     C      0.829540000000     0.176300000000     0.038510000000    -0.101627   
C301     C      0.396470000000     0.651980000000     0.037690000000    -0.183893   
C302     C      0.355250000000     0.640140000000     0.040670000000     0.0766526  
C303     C      0.324500000000     0.669500000000     0.043750000000    -0.102498   
C304     C      0.334350000000     0.711280000000     0.043930000000     0.0490821  
C305     C      0.375550000000     0.723130000000     0.041380000000    -0.0972825  
C306     C      0.406320000000     0.693790000000     0.038310000000     0.066422   
C307     C      0.301670000000     0.742450000000     0.045750000000    -0.00748733 
C308     C      0.266110000000     0.737910000000     0.022100000000    -0.0366266  
C309     C      0.235900000000     0.767950000000     0.022610000000    -0.0358126  
C310     C      0.240690000000     0.803130000000     0.046730000000    -0.00881775 
C311     C      0.276000000000     0.807440000000     0.070790000000    -0.0356014  
C312     C      0.306210000000     0.777350000000     0.070330000000    -0.0364524  
C313     C      0.209450000000     0.835730000000     0.045750000000     0.0521077  
C314     C      0.167660000000     0.825870000000     0.046520000000    -0.102482   
C315     C      0.138200000000     0.856560000000     0.043800000000     0.0755154  
C316     C      0.149990000000     0.897720000000     0.040170000000    -0.19509    
C317     C      0.191830000000     0.907590000000     0.040050000000     0.0819128  
C318     C      0.221260000000     0.876880000000     0.042820000000    -0.105145   
C319     C      0.153540000000     0.150820000000     0.045380000000    -0.196879   
C320     C      0.142960000000     0.192300000000     0.049600000000     0.07553    
C321     C      0.173220000000     0.222390000000     0.052820000000    -0.10339    
C322     C      0.214960000000     0.211930000000     0.051890000000     0.0491379  
C323     C      0.225570000000     0.170340000000     0.048780000000    -0.103134   
C324     C      0.195270000000     0.140190000000     0.045600000000     0.07534    
C325     C      0.247150000000     0.244380000000     0.052940000000    -0.00831262 
C326     C      0.241670000000     0.281200000000     0.031390000000    -0.0368052  
C327     C      0.271880000000     0.311490000000     0.031700000000    -0.0363921  
C328     C      0.308530000000     0.305910000000     0.053530000000    -0.00910503 
C329     C      0.314080000000     0.269110000000     0.075120000000    -0.0362762  
C330     C      0.283790000000     0.238760000000     0.074840000000    -0.0367096  
C331     C      0.340920000000     0.338160000000     0.053050000000     0.0506907  
C332     C      0.330330000000     0.379820000000     0.054570000000    -0.10575    
C333     C      0.360360000000     0.410180000000     0.051750000000     0.0796395  
C334     C      0.401900000000     0.399780000000     0.047290000000    -0.205807   
C335     C      0.412660000000     0.358110000000     0.046980000000     0.0790962  
C336     C      0.382560000000     0.327710000000     0.049820000000    -0.105543   
C337     C      0.653100000000     0.033850000000     0.654430000000    -0.177728   
C338     C      0.642410000000     0.034000000000     0.696060000000     0.0624571  
C339     C      0.672630000000     0.033360000000     0.726230000000    -0.0944746  
C340     C      0.714260000000     0.032560000000     0.715520000000     0.0457892  
C341     C      0.724970000000     0.032970000000     0.673920000000    -0.0994498  
C342     C      0.694760000000     0.033640000000     0.643730000000     0.0720874  
C343     C      0.746360000000     0.030770000000     0.747610000000    -0.00537535 
C344     C      0.742800000000     0.054240000000     0.783410000000    -0.0360295  
C345     C      0.772870000000     0.052310000000     0.813690000000    -0.0378281  
C346     C      0.807200000000     0.026870000000     0.808860000000    -0.00210735 
C347     C      0.810740000000     0.003390000000     0.773070000000    -0.0440516  
C348     C      0.780670000000     0.005300000000     0.742810000000    -0.0420148  
C349     C      0.839350000000     0.025160000000     0.840880000000     0.0397899  
C350     C      0.828720000000     0.024470000000     0.882490000000    -0.0880239  
C351     C      0.858990000000     0.023820000000     0.912620000000     0.054874   
C352     C      0.900650000000     0.023940000000     0.901840000000    -0.149294   
C353     C      0.911240000000     0.024080000000     0.860180000000     0.051181   
C354     C      0.880950000000     0.024680000000     0.830080000000    -0.0865694  
C355     C      0.153260000000     0.029960000000     0.898990000000    -0.17722    
C356     C      0.194910000000     0.028960000000     0.909670000000     0.0724311  
C357     C      0.225090000000     0.028260000000     0.879450000000    -0.0986407  
C358     C      0.214340000000     0.028510000000     0.837870000000     0.0459315  
C359     C      0.172730000000     0.029910000000     0.827180000000    -0.0946915  
C360     C      0.142540000000     0.030670000000     0.857370000000     0.0627636  
C361     C      0.246390000000     0.027000000000     0.805750000000    -0.00514673 
C362     C      0.282340000000     0.050220000000     0.809630000000    -0.0361356  
C363     C      0.312550000000     0.048680000000     0.779480000000    -0.037738   
C364     C      0.307520000000     0.023850000000     0.744780000000    -0.00245475 
C365     C      0.271560000000     0.000630000000     0.740900000000    -0.0438867  
C366     C      0.241330000000     0.002190000000     0.771040000000    -0.0422516  
C367     C      0.339580000000     0.022440000000     0.712650000000     0.0399106  
C368     C      0.381210000000     0.021620000000     0.723350000000    -0.0872314  
C369     C      0.411420000000     0.021400000000     0.693180000000     0.0513531  
C370     C      0.400740000000     0.022030000000     0.651550000000    -0.151388   
C371     C      0.359060000000     0.022210000000     0.640860000000     0.0549451  
C372     C      0.328850000000     0.022430000000     0.671060000000    -0.0891548  
C373     C      0.151670000000     0.045260000000     0.151510000000    -0.209649   
C374     C      0.193260000000     0.046790000000     0.140600000000     0.0835418  
C375     C      0.223570000000     0.048460000000     0.170630000000    -0.108686   
C376     C      0.213050000000     0.048770000000     0.212270000000     0.0538605  
C377     C      0.171470000000     0.048770000000     0.223170000000    -0.108585   
C378     C      0.141110000000     0.047040000000     0.193140000000     0.0831461  
C379     C      0.245360000000     0.047380000000     0.244170000000    -0.0124624  
C380     C      0.279340000000     0.021470000000     0.239490000000    -0.0312695  
C381     C      0.309260000000     0.019130000000     0.269840000000    -0.0483844  
C382     C      0.305970000000     0.042670000000     0.305620000000    -0.00355377 
C383     C      0.272080000000     0.068750000000     0.310240000000    -0.0394147  
C384     C      0.242080000000     0.071050000000     0.279860000000    -0.033939   
C385     C      0.337690000000     0.039740000000     0.338040000000     0.0463234  
C386     C      0.379350000000     0.037150000000     0.327700000000    -0.102618   
C387     C      0.409170000000     0.033930000000     0.358100000000     0.0752666  
C388     C      0.398080000000     0.033250000000     0.399610000000    -0.190674   
C389     C      0.356400000000     0.035920000000     0.409960000000     0.0690978  
C390     C      0.326570000000     0.039130000000     0.379530000000    -0.0989605  
C391     C      0.898040000000     0.036210000000     0.153750000000    -0.189516   
C392     C      0.856340000000     0.038490000000     0.143400000000     0.0691898  
C393     C      0.826490000000     0.041720000000     0.173830000000    -0.0993565  
C394     C      0.837620000000     0.042770000000     0.215310000000     0.0485994  
C395     C      0.879310000000     0.040670000000     0.225630000000    -0.102259   
C396     C      0.909150000000     0.037410000000     0.195250000000     0.075497   
C397     C      0.805870000000     0.045520000000     0.247750000000    -0.00755855 
C398     C      0.771570000000     0.071030000000     0.242930000000    -0.0368633  
C399     C      0.741520000000     0.073090000000     0.273280000000    -0.0356961  
C400     C      0.745160000000     0.049770000000     0.309180000000    -0.00994734 
C401     C      0.779550000000     0.024450000000     0.314060000000    -0.0356309  
C402     C      0.809510000000     0.022330000000     0.283730000000    -0.0370004  
C403     C      0.712810000000     0.050880000000     0.341060000000     0.0532132  
C404     C      0.671230000000     0.050120000000     0.330150000000    -0.10822    
C405     C      0.640880000000     0.048170000000     0.360190000000     0.0832342  
C406     C      0.651440000000     0.046930000000     0.401840000000    -0.210693   
C407     C      0.693000000000     0.049200000000     0.412740000000     0.0837168  
C408     C      0.723300000000     0.051090000000     0.382710000000    -0.108337   
C409     C      0.037320000000     0.152010000000     0.898290000000    -0.182226   
C410     C      0.038940000000     0.140620000000     0.856900000000     0.0661917  
C411     C      0.040950000000     0.170310000000     0.826450000000    -0.0971522  
C412     C      0.041460000000     0.211950000000     0.836760000000     0.0477263  
C413     C      0.040520000000     0.223380000000     0.878100000000    -0.101078   
C414     C      0.038460000000     0.193690000000     0.908590000000     0.0759265  
C415     C      0.041830000000     0.243410000000     0.804420000000    -0.00546382 
C416     C      0.016240000000     0.239400000000     0.770200000000    -0.0428394  
C417     C      0.015660000000     0.269530000000     0.740130000000    -0.0426777  
C418     C      0.040690000000     0.304230000000     0.743700000000    -0.00575146 
C419     C      0.066540000000     0.308100000000     0.777770000000    -0.036608   
C420     C      0.067090000000     0.277950000000     0.807890000000    -0.0367648  
C421     C      0.039200000000     0.336590000000     0.712270000000     0.047858   
C422     C      0.037720000000     0.326320000000     0.670640000000    -0.10234    
C423     C      0.035120000000     0.356810000000     0.641020000000     0.0763991  
C424     C      0.033920000000     0.398190000000     0.652470000000    -0.183804   
C425     C      0.035810000000     0.408450000000     0.694140000000     0.0663272  
C426     C      0.038420000000     0.377930000000     0.723740000000    -0.0970953  
C427     C      0.019290000000     0.900080000000     0.902540000000    -0.143446   
C428     C      0.019410000000     0.910190000000     0.860710000000     0.0476816  
C429     C      0.018280000000     0.879630000000     0.830730000000    -0.0853888  
C430     C      0.017020000000     0.838030000000     0.841640000000     0.04068    
C431     C      0.016560000000     0.827920000000     0.883450000000    -0.0864561  
C432     C      0.017620000000     0.858490000000     0.913470000000     0.0509624  
C433     C      0.016650000000     0.805420000000     0.809550000000    -0.0108423  
C434     C      0.993900000000     0.810310000000     0.773360000000    -0.0292704  
C435     C      0.994060000000     0.780030000000     0.743060000000    -0.0290626  
C436     C      0.017000000000     0.743940000000     0.748030000000    -0.0112373  
C437     C      0.039600000000     0.738980000000     0.784320000000    -0.0356816  
C438     C      0.039410000000     0.769250000000     0.814620000000    -0.0358118  
C439     C      0.017630000000     0.711800000000     0.715450000000     0.0406583  
C440     C      0.018540000000     0.722610000000     0.673820000000    -0.0876719  
C441     C      0.019780000000     0.692540000000     0.643330000000     0.0509171  
C442     C      0.020190000000     0.650750000000     0.653560000000    -0.145113   
C443     C      0.018930000000     0.639920000000     0.695180000000     0.0473261  
C444     C      0.017680000000     0.670000000000     0.725660000000    -0.085739   
C445     C      0.028500000000     0.900560000000     0.154490000000    -0.194961   
C446     C      0.029350000000     0.858880000000     0.144110000000     0.0732491  
C447     C      0.030320000000     0.829090000000     0.174530000000    -0.102132   
C448     C      0.030550000000     0.840350000000     0.215910000000     0.0497093  
C449     C      0.029960000000     0.881970000000     0.226360000000    -0.104614   
C450     C      0.028890000000     0.911800000000     0.195940000000     0.0789922  
C451     C      0.031130000000     0.808690000000     0.248070000000    -0.00654232 
C452     C      0.005860000000     0.774150000000     0.244810000000    -0.0428894  
C453     C      0.006420000000     0.744140000000     0.275010000000    -0.0427166  
C454     C      0.032320000000     0.748070000000     0.309030000000    -0.0067729  
C455     C      0.057530000000     0.782670000000     0.312350000000    -0.036409   
C456     C      0.056920000000     0.812740000000     0.282150000000    -0.0366179  
C457     C      0.032870000000     0.716130000000     0.340950000000     0.0497044  
C458     C      0.032220000000     0.674620000000     0.330050000000    -0.105728   
C459     C      0.031790000000     0.644440000000     0.360090000000     0.0794275  
C460     C      0.032020000000     0.655160000000     0.401680000000    -0.196253   
C461     C      0.033130000000     0.696710000000     0.412560000000     0.0729848  
C462     C      0.033540000000     0.726890000000     0.382480000000    -0.101833   
C463     C      0.045800000000     0.401780000000     0.400160000000    -0.203262   
C464     C      0.046860000000     0.359940000000     0.410140000000     0.0783672  
C465     C      0.050190000000     0.330180000000     0.379540000000    -0.104781   
C466     C      0.052590000000     0.341390000000     0.338080000000     0.0501049  
C467     C      0.052570000000     0.383270000000     0.328210000000    -0.104949   
C468     C      0.049250000000     0.413040000000     0.358800000000     0.0781168  
C469     C      0.053870000000     0.309580000000     0.305270000000    -0.00876812 
C470     C      0.076510000000     0.273340000000     0.310360000000    -0.0365478  
C471     C      0.076610000000     0.243090000000     0.280000000000    -0.0364378  
C472     C      0.054080000000     0.248250000000     0.243710000000    -0.00874408 
C473     C      0.031730000000     0.284650000000     0.238510000000    -0.036618   
C474     C      0.031630000000     0.314850000000     0.268830000000    -0.0366056  
C475     C      0.053020000000     0.215560000000     0.211770000000     0.0500833  
C476     C      0.050720000000     0.174040000000     0.222780000000    -0.104771   
C477     C      0.047550000000     0.143550000000     0.192880000000     0.0780986  
C478     C      0.046550000000     0.153720000000     0.151090000000    -0.20241    
C479     C      0.049940000000     0.195160000000     0.140040000000     0.0778411  
C480     C      0.053100000000     0.225630000000     0.169950000000    -0.10458    
H1       H      0.996340000000     0.998750000000     0.057850000000    -1.22428    
H2       H      0.051020000000     0.051370000000     0.051120000000    -1.03739    
H3       H      0.990230000000     0.096520000000     0.989660000000    -0.499405   
H4       H      0.094730000000     0.988300000000     0.990890000000    -0.507431   
H5       H      0.997670000000     0.555780000000     0.496110000000    -1.22236    
H6       H      0.050830000000     0.501820000000     0.502320000000    -1.05733    
H7       H      0.988000000000     0.456780000000     0.562000000000    -0.508375   
H8       H      0.095200000000     0.562360000000     0.564630000000    -0.537503   
H9       H      0.497110000000     0.998100000000     0.495830000000    -1.23521    
H10      H      0.550400000000     0.052010000000     0.502210000000    -1.05424    
H11      H      0.595510000000     0.990500000000     0.563000000000    -0.50994    
H12      H      0.488320000000     0.096240000000     0.563190000000    -0.533307   
H13      H      0.554690000000     0.496920000000     0.997400000000    -1.23353    
H14      H      0.501600000000     0.502270000000     0.051700000000    -1.0766     
H15      H      0.455000000000     0.562200000000     0.990430000000    -0.517214   
H16      H      0.562640000000     0.564540000000     0.095250000000    -0.5525     
H17      H      0.515390000000     0.350510000000     0.111120000000     0.0155407  
H18      H      0.518820000000     0.298120000000     0.163810000000     0.0520553  
H19      H      0.516730000000     0.391570000000     0.257010000000     0.0527157  
H20      H      0.514080000000     0.444120000000     0.204370000000     0.0174947  
H21      H      0.480960000000     0.265500000000     0.218340000000     0.0350825  
H22      H      0.488480000000     0.212860000000     0.270520000000     0.0354599  
H23      H      0.573080000000     0.290060000000     0.336260000000     0.035648   
H24      H      0.565540000000     0.342710000000     0.284080000000     0.0358335  
H25      H      0.537140000000     0.163990000000     0.297480000000     0.0519547  
H26      H      0.539540000000     0.111360000000     0.350050000000     0.0158171  
H27      H      0.538650000000     0.204850000000     0.443430000000     0.0177896  
H28      H      0.535460000000     0.257320000000     0.390800000000     0.0525632  
H29      H      0.532850000000     0.848740000000     0.441620000000     0.0216272  
H30      H      0.530660000000     0.796700000000     0.388560000000     0.0528626  
H31      H      0.521690000000     0.890800000000     0.296380000000     0.0534162  
H32      H      0.524500000000     0.943020000000     0.349180000000     0.0147986  
H33      H      0.480350000000     0.769920000000     0.339170000000     0.0360586  
H34      H      0.476520000000     0.717580000000     0.286210000000     0.0361133  
H35      H      0.562100000000     0.786070000000     0.212460000000     0.0370335  
H36      H      0.565920000000     0.838390000000     0.265380000000     0.0366776  
H37      H      0.521570000000     0.665310000000     0.256180000000     0.0524329  
H38      H      0.521220000000     0.612520000000     0.203870000000     0.0161811  
H39      H      0.512990000000     0.705660000000     0.110280000000     0.0233761  
H40      H      0.512710000000     0.758270000000     0.162830000000     0.0522322  
H41      H      0.522700000000     0.850180000000     0.609110000000     0.0279744  
H42      H      0.523300000000     0.797350000000     0.661530000000     0.0493831  
H43      H      0.521840000000     0.890260000000     0.755270000000     0.0507031  
H44      H      0.522090000000     0.943160000000     0.702980000000     0.030928   
H45      H      0.481710000000     0.766090000000     0.713840000000     0.0369503  
H46      H      0.483200000000     0.713310000000     0.766440000000     0.0371493  
H47      H      0.567330000000     0.786330000000     0.837310000000     0.0378918  
H48      H      0.565920000000     0.839050000000     0.784720000000     0.038092   
H49      H      0.527530000000     0.662070000000     0.796650000000     0.0493736  
H50      H      0.527360000000     0.609650000000     0.849520000000     0.0279813  
H51      H      0.525200000000     0.703620000000     0.942380000000     0.0309702  
H52      H      0.524630000000     0.755870000000     0.889460000000     0.050616   
H53      H      0.528170000000     0.204600000000     0.611920000000     0.0164251  
H54      H      0.528170000000     0.256870000000     0.664750000000     0.05253    
H55      H      0.539140000000     0.163470000000     0.757450000000     0.0522278  
H56      H      0.538490000000     0.110970000000     0.704810000000     0.0235432  
H57      H      0.573810000000     0.287200000000     0.716150000000     0.0363012  
H58      H      0.570690000000     0.340080000000     0.768610000000     0.0362668  
H59      H      0.487140000000     0.265550000000     0.838740000000     0.0366032  
H60      H      0.490190000000     0.212730000000     0.786280000000     0.0368531  
H61      H      0.520260000000     0.388980000000     0.796350000000     0.0529558  
H62      H      0.518300000000     0.442030000000     0.848400000000     0.021789   
H63      H      0.529830000000     0.349740000000     0.942500000000     0.0148177  
H64      H      0.532380000000     0.296940000000     0.890240000000     0.0536428  
H65      H      0.847260000000     0.443850000000     0.507400000000     0.0225046  
H66      H      0.794260000000     0.391980000000     0.501080000000     0.0523164  
H67      H      0.885810000000     0.297230000000     0.510340000000     0.0530709  
H68      H      0.939010000000     0.348990000000     0.515990000000     0.017374   
H69      H      0.761460000000     0.340430000000     0.543590000000     0.0365773  
H70      H      0.708840000000     0.287820000000     0.541550000000     0.0358483  
H71      H      0.783750000000     0.216010000000     0.459850000000     0.0359153  
H72      H      0.836540000000     0.268750000000     0.461960000000     0.0367737  
H73      H      0.658830000000     0.256450000000     0.496580000000     0.0526682  
H74      H      0.606980000000     0.203370000000     0.502030000000     0.0192073  
H75      H      0.702010000000     0.111660000000     0.509400000000     0.0181638  
H76      H      0.753730000000     0.164930000000     0.504760000000     0.0529868  
H77      H      0.943670000000     0.703440000000     0.531530000000     0.0280043  
H78      H      0.891140000000     0.756140000000     0.529590000000     0.0511371  
H79      H      0.797490000000     0.663060000000     0.526360000000     0.0501009  
H80      H      0.849840000000     0.610250000000     0.527570000000     0.0261641  
H81      H      0.836180000000     0.785310000000     0.570920000000     0.0376697  
H82      H      0.783620000000     0.838070000000     0.567390000000     0.0369921  
H83      H      0.719210000000     0.767920000000     0.475910000000     0.0362975  
H84      H      0.771730000000     0.715130000000     0.479500000000     0.0366007  
H85      H      0.757330000000     0.890280000000     0.521340000000     0.0534639  
H86      H      0.704580000000     0.942770000000     0.520750000000     0.0175936  
H87      H      0.611420000000     0.849030000000     0.515620000000     0.0222165  
H88      H      0.664270000000     0.796640000000     0.517050000000     0.0525594  
H89      H      0.107200000000     0.350380000000     0.501400000000     0.0188918  
H90      H      0.159080000000     0.297310000000     0.496240000000     0.052229   
H91      H      0.253940000000     0.388740000000     0.505760000000     0.0528678  
H92      H      0.202190000000     0.442020000000     0.510110000000     0.0184308  
H93      H      0.208530000000     0.265990000000     0.541990000000     0.0356849  
H94      H      0.261100000000     0.213370000000     0.544710000000     0.0362086  
H95      H      0.337110000000     0.284870000000     0.463770000000     0.0361753  
H96      H      0.284360000000     0.337630000000     0.460990000000     0.0357125  
H97      H      0.294290000000     0.161770000000     0.502530000000     0.0517495  
H98      H      0.347200000000     0.109860000000     0.509160000000     0.0218647  
H99      H      0.438930000000     0.204650000000     0.518770000000     0.0157715  
H100     H      0.385800000000     0.256460000000     0.512810000000     0.0524891  
H101     H      0.204730000000     0.610820000000     0.522640000000     0.0153209  
H102     H      0.257450000000     0.663350000000     0.523000000000     0.0524916  
H103     H      0.164250000000     0.756940000000     0.520990000000     0.0526689  
H104     H      0.111440000000     0.704540000000     0.519760000000     0.0217425  
H105     H      0.284510000000     0.715300000000     0.568880000000     0.0363271  
H106     H      0.337090000000     0.768100000000     0.571680000000     0.0370852  
H107     H      0.270860000000     0.838690000000     0.481870000000     0.0370231  
H108     H      0.218340000000     0.785870000000     0.478970000000     0.0360763  
H109     H      0.391150000000     0.797430000000     0.529090000000     0.0499912  
H110     H      0.443690000000     0.850120000000     0.530320000000     0.0260595  
H111     H      0.349780000000     0.943310000000     0.529320000000     0.0276804  
H112     H      0.297430000000     0.890480000000     0.528800000000     0.0510257  
H113     H      0.612240000000     0.518960000000     0.202770000000     0.01446    
H114     H      0.665200000000     0.517270000000     0.254810000000     0.0532727  
H115     H      0.758100000000     0.518680000000     0.160910000000     0.0531728  
H116     H      0.705160000000     0.519550000000     0.108560000000     0.0206458  
H117     H      0.717110000000     0.564180000000     0.281220000000     0.0362487  
H118     H      0.769560000000     0.565420000000     0.334060000000     0.0360785  
H119     H      0.839360000000     0.475410000000     0.267170000000     0.0366328  
H120     H      0.786700000000     0.474040000000     0.214250000000     0.0364133  
H121     H      0.796670000000     0.519220000000     0.387110000000     0.0527428  
H122     H      0.848360000000     0.521550000000     0.440450000000     0.0217881  
H123     H      0.943260000000     0.524920000000     0.348270000000     0.015038   
H124     H      0.891260000000     0.523140000000     0.295030000000     0.0532276  
H125     H      0.203930000000     0.504770000000     0.445720000000     0.0188071  
H126     H      0.256930000000     0.498590000000     0.393810000000     0.052185   
H127     H      0.164850000000     0.503160000000     0.299280000000     0.0519572  
H128     H      0.111700000000     0.508560000000     0.351130000000     0.0164194  
H129     H      0.289140000000     0.540500000000     0.342210000000     0.0357358  
H130     H      0.341700000000     0.540200000000     0.289530000000     0.035696   
H131     H      0.268420000000     0.457800000000     0.216910000000     0.0355222  
H132     H      0.215690000000     0.458160000000     0.269700000000     0.035497   
H133     H      0.393080000000     0.498330000000     0.257410000000     0.0520158  
H134     H      0.444840000000     0.504170000000     0.204220000000     0.0192313  
H135     H      0.349810000000     0.506800000000     0.112400000000     0.0184558  
H136     H      0.298120000000     0.501810000000     0.165700000000     0.051772   
H137     H      0.202720000000     0.516130000000     0.613700000000     0.0166045  
H138     H      0.254480000000     0.511520000000     0.666940000000     0.0524667  
H139     H      0.159670000000     0.505290000000     0.758680000000     0.0520406  
H140     H      0.107760000000     0.510480000000     0.705680000000     0.023611   
H141     H      0.281360000000     0.463020000000     0.718190000000     0.0365051  
H142     H      0.334230000000     0.462690000000     0.770900000000     0.0364119  
H143     H      0.264610000000     0.550480000000     0.840920000000     0.0367822  
H144     H      0.211850000000     0.550690000000     0.788400000000     0.0369717  
H145     H      0.386040000000     0.509700000000     0.797960000000     0.0532157  
H146     H      0.439440000000     0.513950000000     0.849580000000     0.0212075  
H147     H      0.347350000000     0.510770000000     0.944550000000     0.0165176  
H148     H      0.294210000000     0.505680000000     0.892820000000     0.0538906  
H149     H      0.940870000000     0.531100000000     0.702260000000     0.030919   
H150     H      0.887860000000     0.533480000000     0.754330000000     0.050723   
H151     H      0.795090000000     0.533660000000     0.660360000000     0.0493889  
H152     H      0.848140000000     0.532100000000     0.608060000000     0.0277916  
H153     H      0.835470000000     0.490900000000     0.783800000000     0.0379035  
H154     H      0.782830000000     0.491430000000     0.836440000000     0.0372703  
H155     H      0.712160000000     0.577210000000     0.765200000000     0.0372381  
H156     H      0.764940000000     0.576760000000     0.712470000000     0.0373269  
H157     H      0.753670000000     0.535340000000     0.888360000000     0.0510198  
H158     H      0.701470000000     0.533580000000     0.941310000000     0.0285776  
H159     H      0.607300000000     0.533100000000     0.848520000000     0.0267353  
H160     H      0.659720000000     0.534130000000     0.795600000000     0.0496101  
H161     H      0.606510000000     0.705460000000     0.021780000000     0.027764   
H162     H      0.658980000000     0.758360000000     0.020840000000     0.0482778  
H163     H      0.752750000000     0.665510000000     0.016010000000     0.0492866  
H164     H      0.700510000000     0.612580000000     0.017670000000     0.02713    
H165     H      0.710660000000     0.789550000000     0.977430000000     0.0379632  
H166     H      0.763480000000     0.842260000000     0.978100000000     0.0383376  
H167     H      0.835410000000     0.769110000000     0.061210000000     0.0363891  
H168     H      0.782730000000     0.716490000000     0.060480000000     0.0366507  
H169     H      0.794260000000     0.893400000000     0.021990000000     0.0493088  
H170     H      0.847280000000     0.945720000000     0.023780000000     0.0271098  
H171     H      0.940080000000     0.851590000000     0.020860000000     0.0276917  
H172     H      0.887070000000     0.799530000000     0.018270000000     0.0500292  
H173     H      0.705900000000     0.446100000000     0.033600000000     0.0210788  
H174     H      0.758920000000     0.394030000000     0.037570000000     0.0516183  
H175     H      0.666690000000     0.299590000000     0.032850000000     0.0515436  
H176     H      0.613480000000     0.351440000000     0.029450000000     0.0127145  
H177     H      0.788480000000     0.340850000000     0.992920000000     0.0434651  
H178     H      0.840940000000     0.287960000000     0.994410000000     0.0440262  
H179     H      0.770460000000     0.220610000000     0.083570000000     0.0359539  
H180     H      0.717860000000     0.273510000000     0.081920000000     0.0359901  
H181     H      0.892750000000     0.259270000000     0.039920000000     0.0524795  
H182     H      0.944410000000     0.205860000000     0.037010000000     0.0160853  
H183     H      0.849080000000     0.114080000000     0.036190000000     0.0204567  
H184     H      0.797550000000     0.167670000000     0.038240000000     0.0515812  
H185     H      0.346570000000     0.608190000000     0.040560000000     0.0160135  
H186     H      0.293020000000     0.659490000000     0.046210000000     0.0516422  
H187     H      0.383990000000     0.755150000000     0.040940000000     0.0518152  
H188     H      0.437750000000     0.704010000000     0.036120000000     0.0232403  
H189     H      0.262070000000     0.711620000000     0.002400000000     0.0353098  
H190     H      0.209270000000     0.764140000000     0.003280000000     0.0352502  
H191     H      0.280190000000     0.834020000000     0.090080000000     0.0364517  
H192     H      0.333060000000     0.781340000000     0.089310000000     0.0366221  
H193     H      0.157740000000     0.794400000000     0.049280000000     0.0523441  
H194     H      0.106230000000     0.847890000000     0.044320000000     0.0208859  
H195     H      0.202000000000     0.938980000000     0.037320000000     0.0160193  
H196     H      0.253290000000     0.885300000000     0.041700000000     0.0533959  
H197     H      0.111220000000     0.201760000000     0.050000000000     0.019348   
H198     H      0.163820000000     0.253970000000     0.055990000000     0.051008   
H199     H      0.257350000000     0.161100000000     0.047640000000     0.0508312  
H200     H      0.204690000000     0.108600000000     0.042530000000     0.0180175  
H201     H      0.214290000000     0.286370000000     0.013500000000     0.0344187  
H202     H      0.266800000000     0.339020000000     0.014040000000     0.0344276  
H203     H      0.341670000000     0.263920000000     0.092680000000     0.0350102  
H204     H      0.288910000000     0.211060000000     0.092210000000     0.0353151  
H205     H      0.298690000000     0.389070000000     0.057850000000     0.0515976  
H206     H      0.350800000000     0.441870000000     0.052550000000     0.0183387  
H207     H      0.444280000000     0.348830000000     0.043700000000     0.0151799  
H208     H      0.391880000000     0.295990000000     0.048250000000     0.0513032  
H209     H      0.610660000000     0.034150000000     0.705500000000     0.0240676  
H210     H      0.663330000000     0.032630000000     0.757990000000     0.0508364  
H211     H      0.756770000000     0.032990000000     0.664660000000     0.0505927  
H212     H      0.704180000000     0.033670000000     0.612000000000     0.0169196  
H213     H      0.717060000000     0.074600000000     0.787790000000     0.0367316  
H214     H      0.769560000000     0.071280000000     0.840610000000     0.0377953  
H215     H      0.836510000000     0.983050000000     0.768690000000     0.0443907  
H216     H      0.783990000000     0.986310000000     0.715900000000     0.0434828  
H217     H      0.796930000000     0.024210000000     0.891810000000     0.0497578  
H218     H      0.849610000000     0.023500000000     0.944360000000     0.0283425  
H219     H      0.942970000000     0.024190000000     0.850650000000     0.0292775  
H220     H      0.890170000000     0.025620000000     0.798300000000     0.049159   
H221     H      0.204340000000     0.028320000000     0.941390000000     0.0185096  
H222     H      0.256870000000     0.026750000000     0.888680000000     0.051785   
H223     H      0.163470000000     0.030750000000     0.795410000000     0.0501249  
H224     H      0.110790000000     0.031660000000     0.847960000000     0.0237986  
H225     H      0.286890000000     0.070100000000     0.835710000000     0.0367558  
H226     H      0.339580000000     0.067480000000     0.783070000000     0.037279   
H227     H      0.267000000000     0.980750000000     0.714830000000     0.0441378  
H228     H      0.214260000000     0.983450000000     0.767460000000     0.0438832  
H229     H      0.390480000000     0.020930000000     0.755120000000     0.0492578  
H230     H      0.443160000000     0.020980000000     0.702650000000     0.0276326  
H231     H      0.349630000000     0.022730000000     0.609140000000     0.026203   
H232     H      0.297070000000     0.023480000000     0.661800000000     0.0486136  
H233     H      0.202610000000     0.045920000000     0.108860000000     0.0173526  
H234     H      0.255330000000     0.049190000000     0.161220000000     0.0521625  
H235     H      0.162350000000     0.048750000000     0.254990000000     0.0519763  
H236     H      0.109410000000     0.046150000000     0.202710000000     0.0150579  
H237     H      0.282390000000     0.002270000000     0.212700000000     0.0325328  
H238     H      0.334590000000     0.998220000000     0.265600000000     0.0442487  
H239     H      0.268940000000     0.087750000000     0.337160000000     0.0365093  
H240     H      0.216510000000     0.091660000000     0.284160000000     0.0345465  
H241     H      0.389000000000     0.038090000000     0.296060000000     0.0500914  
H242     H      0.440950000000     0.032160000000     0.348920000000     0.0135501  
H243     H      0.346670000000     0.035540000000     0.441590000000     0.0214689  
H244     H      0.294720000000     0.040550000000     0.388520000000     0.0505475  
H245     H      0.846590000000     0.037660000000     0.111780000000     0.0212767  
H246     H      0.794630000000     0.042750000000     0.164830000000     0.0508112  
H247     H      0.888980000000     0.041980000000     0.257260000000     0.0520457  
H248     H      0.940940000000     0.035960000000     0.204420000000     0.0153044  
H249     H      0.768130000000     0.089750000000     0.215860000000     0.0359381  
H250     H      0.715620000000     0.093240000000     0.268810000000     0.0353402  
H251     H      0.782910000000     0.005510000000     0.341000000000     0.0349901  
H252     H      0.835160000000     0.001840000000     0.288140000000     0.0352885  
H253     H      0.662130000000     0.049670000000     0.298330000000     0.0522591  
H254     H      0.609210000000     0.046670000000     0.350610000000     0.0150747  
H255     H      0.702340000000     0.048760000000     0.444490000000     0.0175483  
H256     H      0.755040000000     0.052410000000     0.392120000000     0.0528565  
H257     H      0.038440000000     0.108770000000     0.847870000000     0.0232672  
H258     H      0.042200000000     0.160680000000     0.794810000000     0.0507677  
H259     H      0.040460000000     0.255310000000     0.886860000000     0.0521774  
H260     H      0.037300000000     0.203540000000     0.940160000000     0.0178676  
H261     H      0.995980000000     0.213380000000     0.767090000000     0.0439224  
H262     H      0.994960000000     0.266070000000     0.714520000000     0.0435845  
H263     H      0.086550000000     0.334290000000     0.780990000000     0.0367443  
H264     H      0.087480000000     0.281520000000     0.833730000000     0.0368753  
H265     H      0.038810000000     0.294680000000     0.660940000000     0.0509553  
H266     H      0.033960000000     0.347820000000     0.609190000000     0.0159309  
H267     H      0.035060000000     0.440030000000     0.704040000000     0.0233196  
H268     H      0.039060000000     0.386700000000     0.755650000000     0.0514965  
H269     H      0.020710000000     0.941790000000     0.850930000000     0.0299411  
H270     H      0.019180000000     0.888660000000     0.798910000000     0.0486313  
H271     H      0.015010000000     0.796290000000     0.893080000000     0.0495233  
H272     H      0.017280000000     0.849370000000     0.945280000000     0.0288728  
H273     H      0.975480000000     0.837400000000     0.768590000000     0.0380619  
H274     H      0.975730000000     0.784710000000     0.715900000000     0.0376526  
H275     H      0.058180000000     0.711990000000     0.789030000000     0.0367421  
H276     H      0.057840000000     0.764620000000     0.841730000000     0.0370767  
H277     H      0.019050000000     0.754420000000     0.664700000000     0.0482176  
H278     H      0.020770000000     0.702220000000     0.611700000000     0.0271144  
H279     H      0.018950000000     0.608130000000     0.704410000000     0.0281127  
H280     H      0.016370000000     0.660410000000     0.757300000000     0.0488205  
H281     H      0.029300000000     0.849090000000     0.112490000000     0.0208644  
H282     H      0.031310000000     0.797210000000     0.165630000000     0.0512791  
H283     H      0.029700000000     0.891450000000     0.258070000000     0.0524362  
H284     H      0.028250000000     0.943630000000     0.205040000000     0.01436    
H285     H      0.985210000000     0.770590000000     0.219160000000     0.0429505  
H286     H      0.986150000000     0.718120000000     0.272000000000     0.0427785  
H287     H      0.078180000000     0.786220000000     0.338000000000     0.036344   
H288     H      0.077090000000     0.838840000000     0.285130000000     0.0367324  
H289     H      0.032290000000     0.665450000000     0.298250000000     0.0512698  
H290     H      0.031150000000     0.612740000000     0.350580000000     0.0125697  
H291     H      0.033330000000     0.706060000000     0.444310000000     0.0209883  
H292     H      0.033630000000     0.758680000000     0.391750000000     0.0519369  
H293     H      0.044380000000     0.349980000000     0.441610000000     0.0177671  
H294     H      0.049730000000     0.298280000000     0.388360000000     0.0512835  
H295     H      0.055110000000     0.393130000000     0.296720000000     0.0511486  
H296     H      0.048950000000     0.444900000000     0.349830000000     0.016409   
H297     H      0.094480000000     0.268420000000     0.337710000000     0.0352944  
H298     H      0.094660000000     0.215770000000     0.284870000000     0.0350445  
H299     H      0.013420000000     0.289470000000     0.211370000000     0.0344363  
H300     H      0.013240000000     0.341960000000     0.264060000000     0.0343249  
H301     H      0.050200000000     0.165070000000     0.254630000000     0.0510033  
H302     H      0.045130000000     0.112020000000     0.202680000000     0.0160883  
H303     H      0.049630000000     0.204290000000     0.108240000000     0.0177763  
H304     H      0.055570000000     0.257180000000     0.160240000000     0.0512209  
O1       O      0.038360000000     0.133380000000     0.080360000000    -1.01901    
O2       O      0.027090000000     0.919330000000     0.083310000000    -0.78191    
O3       O      0.969130000000     0.030710000000     0.133380000000    -0.992724   
O4       O      0.080890000000     0.036990000000     0.132010000000    -1.05246    
O5       O      0.132010000000     0.036660000000     0.081020000000    -1.03662    
O6       O      0.917470000000     0.032660000000     0.082430000000    -0.776318   
O7       O      0.026370000000     0.971470000000     0.133820000000    -0.999073   
O8       O      0.036280000000     0.082890000000     0.131840000000    -1.0412     
O9       O      0.069590000000     0.987640000000     0.071260000000    -2.04926    
O10      O      0.987450000000     0.072450000000     0.070360000000    -2.05429    
O11      O      0.980930000000     0.984040000000     0.073710000000    -0.856523   
O12      O      0.035030000000     0.035790000000     0.035300000000    -2.53873    
O13      O      0.021590000000     0.920940000000     0.974000000000    -0.692191   
O14      O      0.032800000000     0.133040000000     0.969550000000    -0.919469   
O15      O      0.918850000000     0.974430000000     0.025910000000    -0.719092   
O16      O      0.131810000000     0.968990000000     0.033160000000    -0.936492   
O17      O      0.132950000000     0.080100000000     0.036460000000    -1.01523    
O18      O      0.919510000000     0.084330000000     0.032970000000    -0.762815   
O19      O      0.972090000000     0.026280000000     0.921240000000    -0.579088   
O20      O      0.082040000000     0.028670000000     0.918890000000    -0.622215   
O21      O      0.920550000000     0.025680000000     0.973160000000    -0.701985   
O22      O      0.133110000000     0.028630000000     0.970330000000    -0.91611    
O23      O      0.969890000000     0.921880000000     0.026230000000    -0.720354   
O24      O      0.971590000000     0.134740000000     0.030840000000    -0.933499   
O25      O      0.082530000000     0.131900000000     0.036580000000    -1.01905    
O26      O      0.079470000000     0.918840000000     0.035080000000    -0.762338   
O27      O      0.024390000000     0.971770000000     0.921560000000    -0.573592   
O28      O      0.031590000000     0.081470000000     0.918620000000    -0.627013   
O29      O      0.070650000000     0.069610000000     0.987580000000    -1.96011    
O30      O      0.988200000000     0.990210000000     0.989550000000    -1.57896    
O31      O      0.982020000000     0.070060000000     0.982190000000    -1.22829    
O32      O      0.068100000000     0.980950000000     0.983090000000    -1.2316     
O33      O      0.036390000000     0.420720000000     0.471140000000    -1.02383    
O34      O      0.030550000000     0.635120000000     0.472600000000    -0.776439   
O35      O      0.970850000000     0.526360000000     0.419610000000    -0.998666   
O36      O      0.082410000000     0.517290000000     0.421890000000    -1.04584    
O37      O      0.132880000000     0.515790000000     0.473450000000    -1.04097    
O38      O      0.918510000000     0.524440000000     0.469930000000    -0.790816   
O39      O      0.028950000000     0.584010000000     0.421070000000    -1.00549    
O40      O      0.036870000000     0.472390000000     0.420820000000    -1.0446     
O41      O      0.071350000000     0.565740000000     0.483700000000    -2.07575    
O42      O      0.987040000000     0.482730000000     0.481710000000    -2.0703     
O43      O      0.982840000000     0.571180000000     0.480350000000    -0.862614   
O44      O      0.034990000000     0.517480000000     0.518220000000    -2.55132    
O45      O      0.023260000000     0.631250000000     0.581800000000    -0.693027   
O46      O      0.029820000000     0.418910000000     0.581730000000    -0.92956    
O47      O      0.920400000000     0.581070000000     0.527050000000    -0.73657    
O48      O      0.133500000000     0.582150000000     0.524230000000    -0.949146   
O49      O      0.131510000000     0.471180000000     0.516700000000    -1.04522    
O50      O      0.918140000000     0.471540000000     0.517960000000    -0.766314   
O51      O      0.970620000000     0.526380000000     0.631870000000    -0.573246   
O52      O      0.080460000000     0.520110000000     0.635080000000    -0.623341   
O53      O      0.919810000000     0.529210000000     0.579360000000    -0.70664    
O54      O      0.132160000000     0.519650000000     0.584230000000    -0.940816   
O55      O      0.972530000000     0.632550000000     0.528350000000    -0.716875   
O56      O      0.968840000000     0.419800000000     0.519680000000    -0.931091   
O57      O      0.079940000000     0.420500000000     0.515340000000    -1.0322     
O58      O      0.082440000000     0.633550000000     0.522440000000    -0.754224   
O59      O      0.024310000000     0.579300000000     0.633210000000    -0.574484   
O60      O      0.028870000000     0.469300000000     0.633840000000    -0.623786   
O61      O      0.069000000000     0.481870000000     0.565470000000    -1.98152    
O62      O      0.988680000000     0.563210000000     0.564340000000    -1.5911     
O63      O      0.980340000000     0.483240000000     0.570020000000    -1.24348    
O64      O      0.068660000000     0.570290000000     0.572140000000    -1.22943    
O65      O      0.631870000000     0.038440000000     0.472390000000    -1.03662    
O66      O      0.417480000000     0.030200000000     0.470930000000    -0.774493   
O67      O      0.527100000000     0.970990000000     0.420030000000    -1.00678    
O68      O      0.534150000000     0.082610000000     0.421180000000    -1.04919    
O69      O      0.534650000000     0.133610000000     0.472230000000    -1.04074    
O70      O      0.529470000000     0.919170000000     0.470810000000    -0.793157   
O71      O      0.469210000000     0.028800000000     0.420030000000    -0.997321   
O72      O      0.580780000000     0.037740000000     0.421410000000    -1.06197    
O73      O      0.486490000000     0.071430000000     0.482700000000    -2.08906    
O74      O      0.570640000000     0.988360000000     0.482430000000    -2.06518    
O75      O      0.482040000000     0.982950000000     0.480050000000    -0.864583   
O76      O      0.534740000000     0.036160000000     0.518110000000    -2.55523    
O77      O      0.420600000000     0.023890000000     0.580220000000    -0.705487   
O78      O      0.632960000000     0.032020000000     0.583100000000    -0.917677   
O79      O      0.472430000000     0.920980000000     0.527570000000    -0.735835   
O80      O      0.468750000000     0.133820000000     0.521710000000    -0.945244   
O81      O      0.579780000000     0.133130000000     0.515770000000    -1.05181    
O82      O      0.582270000000     0.920010000000     0.519960000000    -0.766458   
O83      O      0.525630000000     0.972790000000     0.632200000000    -0.569145   
O84      O      0.530030000000     0.082690000000     0.634400000000    -0.624296   
O85      O      0.523980000000     0.921520000000     0.580120000000    -0.705891   
O86      O      0.529920000000     0.133880000000     0.583070000000    -0.94448    
O87      O      0.420310000000     0.972500000000     0.527500000000    -0.725246   
O88      O      0.633340000000     0.971400000000     0.521890000000    -0.928218   
O89      O      0.631360000000     0.082440000000     0.516270000000    -1.0279     
O90      O      0.418020000000     0.082100000000     0.519600000000    -0.756527   
O91      O      0.472060000000     0.025920000000     0.632160000000    -0.580601   
O92      O      0.581890000000     0.031120000000     0.634530000000    -0.618102   
O93      O      0.569550000000     0.071240000000     0.565490000000    -1.97924    
O94      O      0.489130000000     0.989810000000     0.564060000000    -1.59172    
O95      O      0.569060000000     0.982530000000     0.570760000000    -1.24204    
O96      O      0.480860000000     0.069630000000     0.570920000000    -1.235      
O97      O      0.420550000000     0.470830000000     0.038900000000    -1.03723    
O98      O      0.634800000000     0.473740000000     0.028790000000    -0.77878    
O99      O      0.525860000000     0.420560000000     0.970520000000    -1.00816    
O100     O      0.519380000000     0.421690000000     0.082220000000    -1.05728    
O101     O      0.518150000000     0.472820000000     0.133110000000    -1.05684    
O102     O      0.522530000000     0.471290000000     0.918680000000    -0.791119   
O103     O      0.584030000000     0.421820000000     0.027850000000    -1.00823    
O104     O      0.472430000000     0.420680000000     0.037340000000    -1.05544    
O105     O      0.565990000000     0.484130000000     0.070610000000    -2.09342    
O106     O      0.481480000000     0.482180000000     0.988170000000    -2.07534    
O107     O      0.569960000000     0.481420000000     0.982170000000    -0.863632   
O108     O      0.516850000000     0.518450000000     0.035730000000    -2.56449    
O109     O      0.629990000000     0.582860000000     0.022400000000    -0.699927   
O110     O      0.417710000000     0.581400000000     0.032830000000    -0.932451   
O111     O      0.578540000000     0.529120000000     0.919880000000    -0.72824    
O112     O      0.583170000000     0.523660000000     0.132620000000    -0.964624   
O113     O      0.472200000000     0.516040000000     0.133180000000    -1.05361    
O114     O      0.468830000000     0.518800000000     0.920070000000    -0.771076   
O115     O      0.523470000000     0.632810000000     0.972070000000    -0.567826   
O116     O      0.520130000000     0.635110000000     0.081960000000    -0.620066   
O117     O      0.525760000000     0.580680000000     0.920870000000    -0.705948   
O118     O      0.521140000000     0.583800000000     0.133180000000    -0.950932   
O119     O      0.630910000000     0.530110000000     0.971070000000    -0.717082   
O120     O      0.418090000000     0.519640000000     0.971840000000    -0.943445   
O121     O      0.420430000000     0.515070000000     0.082760000000    -1.02854    
O122     O      0.633720000000     0.522700000000     0.080690000000    -0.760383   
O123     O      0.577760000000     0.633990000000     0.024790000000    -0.57174    
O124     O      0.467730000000     0.633900000000     0.031460000000    -0.618964   
O125     O      0.481570000000     0.565360000000     0.070800000000    -1.99702    
O126     O      0.561460000000     0.565410000000     0.988870000000    -1.59017    
O127     O      0.481240000000     0.570480000000     0.982250000000    -1.23318    
O128     O      0.569990000000     0.572440000000     0.068680000000    -1.22355    
Tb1      Tb     0.025270000000     0.027190000000     0.096180000000     6.26077    
Tb2      Tb     0.026120000000     0.958590000000     0.029980000000     4.27245    
Tb3      Tb     0.026690000000     0.096580000000     0.025720000000     6.12972    
Tb4      Tb     0.957440000000     0.029530000000     0.029360000000     4.28119    
Tb5      Tb     0.095690000000     0.025250000000     0.026340000000     6.16196    
Tb6      Tb     0.028160000000     0.028180000000     0.958190000000     3.15514    
Tb7      Tb     0.026460000000     0.527590000000     0.457450000000     6.27411    
Tb8      Tb     0.028000000000     0.594760000000     0.525130000000     4.23731    
Tb9      Tb     0.024900000000     0.456680000000     0.526360000000     6.18205    
Tb10     Tb     0.957560000000     0.525320000000     0.523440000000     4.36267    
Tb11     Tb     0.095760000000     0.526470000000     0.528080000000     6.32281    
Tb12     Tb     0.027140000000     0.523550000000     0.595410000000     3.13917    
Tb13     Tb     0.525370000000     0.026860000000     0.457280000000     6.30335    
Tb14     Tb     0.457460000000     0.028250000000     0.524020000000     4.28043    
Tb15     Tb     0.595650000000     0.027010000000     0.527140000000     6.1676     
Tb16     Tb     0.527830000000     0.958750000000     0.523910000000     4.36293    
Tb17     Tb     0.524870000000     0.096870000000     0.527220000000     6.32301    
Tb18     Tb     0.528040000000     0.029030000000     0.595210000000     3.12995    
Tb19     Tb     0.527270000000     0.457850000000     0.026380000000     6.32958    
Tb20     Tb     0.594010000000     0.526000000000     0.027140000000     4.26294    
Tb21     Tb     0.455820000000     0.526320000000     0.027010000000     6.22329    
Tb22     Tb     0.523340000000     0.524440000000     0.958200000000     4.35254    
Tb23     Tb     0.526860000000     0.527920000000     0.096270000000     6.41127    
Tb24     Tb     0.522270000000     0.595850000000     0.028340000000     3.10312    


