data_structure

_audit_creation_method RASPA-1.0
_audit_creation_date 2023-5-19
_audit_author_name 'Poobodin Mano'

_cell_length_a    20.2017
_cell_length_b    20.1294
_cell_length_c    20.0555
_cell_angle_alpha 90
_cell_angle_beta  90
_cell_angle_gamma 90
_cell_volume      8155.53

_symmetry_cell_setting          triclinic
_symmetry_space_group_name_Hall 'P 1'
_symmetry_space_group_name_H-M  'P 1'
_symmetry_Int_Tables_number     1

_symmetry_equiv_pos_as_xyz 'x,y,z'

loop_
_atom_site_label
_atom_site_type_symbol
_atom_site_fract_x
_atom_site_fract_y
_atom_site_fract_z
_atom_site_charge
C1       C      0.022180000000     0.162120000000     0.161400000000     0.737927   
C2       C      0.997220000000     0.853530000000     0.168490000000     0.681633   
C3       C      0.846950000000     0.027510000000     0.160950000000     0.686233   
C4       C      0.155380000000     0.030010000000     0.164890000000     0.730186   
C5       C      0.995630000000     0.851070000000     0.862690000000     0.563597   
C6       C      0.028750000000     0.156540000000     0.851390000000     0.667308   
C7       C      0.852630000000     0.855220000000     0.007050000000     0.578241   
C8       C      0.159470000000     0.853080000000     0.030780000000     0.71626    
C9       C      0.158190000000     0.159890000000     0.021450000000     0.749139   
C10      C      0.851800000000     0.161290000000     0.003170000000     0.695593   
C11      C      0.855660000000     0.998250000000     0.856390000000     0.578898   
C12      C      0.161450000000     0.000000000000     0.855540000000     0.662137   
C13      C      0.030000000000     0.357410000000     0.357620000000     0.719098   
C14      C      0.020150000000     0.665070000000     0.359870000000     0.675116   
C15      C      0.852000000000     0.503500000000     0.357190000000     0.683383   
C16      C      0.160190000000     0.483160000000     0.361220000000     0.732284   
C17      C      0.006500000000     0.658300000000     0.666320000000     0.578873   
C18      C      0.007870000000     0.350850000000     0.666770000000     0.65296    
C19      C      0.858490000000     0.663030000000     0.516420000000     0.592339   
C20      C      0.163630000000     0.662250000000     0.503830000000     0.683513   
C21      C      0.157000000000     0.352460000000     0.496260000000     0.737482   
C22      C      0.850350000000     0.355010000000     0.498760000000     0.681908   
C23      C      0.854230000000     0.516700000000     0.662950000000     0.575704   
C24      C      0.160390000000     0.488990000000     0.669470000000     0.643788   
C25      C      0.656960000000     0.021420000000     0.357050000000     0.731825   
C26      C      0.347830000000     0.007420000000     0.359210000000     0.671536   
C27      C      0.506290000000     0.848390000000     0.361930000000     0.6735     
C28      C      0.525920000000     0.157830000000     0.355890000000     0.738147   
C29      C      0.357220000000     0.012940000000     0.665540000000     0.572532   
C30      C      0.664010000000     0.025720000000     0.665520000000     0.634708   
C31      C      0.356710000000     0.855420000000     0.524630000000     0.582562   
C32      C      0.351010000000     0.161100000000     0.489290000000     0.686458   
C33      C      0.655830000000     0.163560000000     0.483100000000     0.716594   
C34      C      0.662390000000     0.854770000000     0.501300000000     0.675607   
C35      C      0.505900000000     0.862060000000     0.669450000000     0.578075   
C36      C      0.514120000000     0.167740000000     0.666210000000     0.630174   
C37      C      0.355430000000     0.355000000000     0.004680000000     0.745795   
C38      C      0.354680000000     0.663100000000     0.027150000000     0.68359    
C39      C      0.356690000000     0.504570000000     0.174380000000     0.675367   
C40      C      0.353200000000     0.499140000000     0.863290000000     0.746957   
C41      C      0.660600000000     0.658690000000     0.019340000000     0.574696   
C42      C      0.662020000000     0.352570000000     0.010600000000     0.671559   
C43      C      0.522750000000     0.657980000000     0.168340000000     0.605106   
C44      C      0.491010000000     0.665760000000     0.861940000000     0.678222   
C45      C      0.483790000000     0.357980000000     0.858860000000     0.720678   
C46      C      0.497230000000     0.350530000000     0.168030000000     0.69214    
C47      C      0.661420000000     0.515970000000     0.163260000000     0.571682   
C48      C      0.661220000000     0.498210000000     0.856370000000     0.632001   
C49      C      0.488270000000     0.316520000000     0.286700000000     0.00324485 
C50      C      0.488580000000     0.230610000000     0.196270000000    -0.0351764  
C51      C      0.540090000000     0.276190000000     0.324770000000     0.0155249  
C52      C      0.540900000000     0.190600000000     0.234700000000     0.176276   
C53      C      0.498730000000     0.728810000000     0.331750000000     0.00403018 
C54      C      0.496570000000     0.817250000000     0.243090000000    -0.0338934  
C55      C      0.543850000000     0.686680000000     0.286970000000     0.00380862 
C56      C      0.545720000000     0.776850000000     0.201940000000     0.169149   
C57      C      0.473260000000     0.697910000000     0.743850000000     0.0132124  
C58      C      0.466610000000     0.783280000000     0.833580000000    -0.0404032  
C59      C      0.516010000000     0.744250000000     0.701770000000     0.00158986 
C60      C      0.507280000000     0.832210000000     0.791230000000     0.166576   
C61      C      0.523870000000     0.200840000000     0.785460000000    -0.00571062 
C62      C      0.515660000000     0.287720000000     0.696240000000    -0.0386468  
C63      C      0.472860000000     0.238990000000     0.827300000000     0.018786   
C64      C      0.463810000000     0.324520000000     0.738230000000     0.179811   
C65      C      0.818330000000     0.236070000000     0.499760000000     0.0112682  
C66      C      0.731640000000     0.325950000000     0.504660000000    -0.0469685  
C67      C      0.771860000000     0.194420000000     0.456120000000     0.0100521  
C68      C      0.686530000000     0.283580000000     0.460170000000     0.179674   
C69      C      0.694670000000     0.736280000000     0.488530000000     0.00662516 
C70      C      0.780300000000     0.825750000000     0.482670000000    -0.0343485  
C71      C      0.740970000000     0.694600000000     0.532210000000     0.000533646
C72      C      0.827210000000     0.784230000000     0.526290000000     0.166607   
C73      C      0.320010000000     0.276520000000     0.459010000000     0.00811274 
C74      C      0.234490000000     0.187750000000     0.461490000000    -0.0474787  
C75      C      0.275010000000     0.322520000000     0.499070000000     0.0165397  
C76      C      0.188090000000     0.231950000000     0.502390000000     0.183241   
C77      C      0.325510000000     0.736530000000     0.540610000000    -0.00470055 
C78      C      0.238380000000     0.824640000000     0.537770000000    -0.0491545  
C79      C      0.282570000000     0.692430000000     0.495300000000     0.0155611  
C80      C      0.197160000000     0.782510000000     0.489510000000     0.174715   
C81      C      0.779450000000     0.534690000000     0.193300000000    -0.00904782 
C82      C      0.691690000000     0.535120000000     0.281230000000    -0.0471006  
C83      C      0.823010000000     0.490880000000     0.237860000000     0.0183955  
C84      C      0.732700000000     0.487640000000     0.323730000000     0.175751   
C85      C      0.324380000000     0.503780000000     0.294140000000     0.000581927
C86      C      0.238440000000     0.516270000000     0.204300000000    -0.0360148  
C87      C      0.277110000000     0.457380000000     0.332070000000     0.0151948  
C88      C      0.193990000000     0.466650000000     0.240790000000     0.177522   
C89      C      0.192240000000     0.458780000000     0.785520000000    -0.00784811 
C90      C      0.278960000000     0.479100000000     0.698620000000    -0.0386659  
C91      C      0.233650000000     0.498280000000     0.836220000000     0.0203948  
C92      C      0.315500000000     0.525070000000     0.746540000000     0.178317   
C93      C      0.778790000000     0.482030000000     0.823600000000     0.000406443
C94      C      0.690300000000     0.489380000000     0.736380000000    -0.0375422  
C95      C      0.822810000000     0.528020000000     0.781970000000     0.000713622
C96      C      0.734420000000     0.535960000000     0.695070000000     0.1683     
C97      C      0.734060000000     0.823900000000     0.995240000000     0.00514561 
C98      C      0.822610000000     0.736900000000     0.990590000000    -0.0403915  
C99      C      0.690880000000     0.776830000000     0.036900000000     0.000981363
C100     C      0.780580000000     0.691200000000     0.034680000000     0.165698   
C101     C      0.821630000000     0.278100000000     0.979950000000     0.019027   
C102     C      0.734310000000     0.189790000000     0.985750000000    -0.0427044  
C103     C      0.779540000000     0.322780000000     0.024160000000    -0.00184171 
C104     C      0.693160000000     0.233400000000     0.031810000000     0.18108    
C105     C      0.239110000000     0.688850000000     0.057960000000     0.0182096  
C106     C      0.325820000000     0.775990000000     0.064220000000    -0.0462485  
C107     C      0.191160000000     0.736180000000     0.024160000000     0.00265506 
C108     C      0.279190000000     0.827460000000     0.033840000000     0.184274   
C109     C      0.326110000000     0.237770000000     0.024070000000     0.00999222 
C110     C      0.240620000000     0.327230000000     0.033160000000    -0.031647   
C111     C      0.273710000000     0.189490000000     0.998340000000     0.0218593  
C112     C      0.186960000000     0.279390000000     0.008640000000     0.17669    
C113     C      0.783290000000     0.037630000000     0.695260000000     0.0106906  
C114     C      0.696430000000     0.037540000000     0.784160000000    -0.0480369  
C115     C      0.824870000000     0.988750000000     0.736720000000    -0.00244959 
C116     C      0.735450000000     0.985260000000     0.822870000000     0.177402   
C117     C      0.324970000000     0.027880000000     0.784020000000    -0.0113209  
C118     C      0.238740000000     0.023860000000     0.693950000000    -0.0478051  
C119     C      0.280150000000     0.985470000000     0.828560000000     0.0245111  
C120     C      0.196460000000     0.978040000000     0.736930000000     0.17469    
C121     C      0.272670000000     0.050590000000     0.197870000000     0.0124771  
C122     C      0.184460000000     0.043750000000     0.284690000000    -0.0346133  
C123     C      0.316880000000     0.004400000000     0.239520000000     0.00821281 
C124     C      0.227490000000     0.996330000000     0.325990000000     0.176446   
C125     C      0.774980000000     0.017180000000     0.325090000000     0.00973533 
C126     C      0.685120000000     0.013410000000     0.237580000000    -0.0356472  
C127     C      0.817850000000     0.057380000000     0.277070000000     0.0123974  
C128     C      0.728720000000     0.055290000000     0.191520000000     0.170525   
C129     C      0.004850000000     0.316940000000     0.785490000000    -0.00563028 
C130     C      0.999410000000     0.231170000000     0.693940000000    -0.0287948  
C131     C      0.054630000000     0.273180000000     0.822220000000     0.0196462  
C132     C      0.050140000000     0.188970000000     0.731530000000     0.165643   
C133     C      0.977420000000     0.732290000000     0.833450000000     0.00311765 
C134     C      0.968960000000     0.820040000000     0.746350000000    -0.048643   
C135     C      0.017230000000     0.688480000000     0.785350000000    -0.00148723 
C136     C      0.011140000000     0.778960000000     0.698360000000     0.170066   
C137     C      0.036630000000     0.783440000000     0.328420000000    -0.00222234 
C138     C      0.030260000000     0.694910000000     0.240640000000    -0.037704   
C139     C      0.987520000000     0.825790000000     0.288510000000     0.0176393  
C140     C      0.977480000000     0.734940000000     0.204120000000     0.174971   
C141     C      0.053290000000     0.328760000000     0.238980000000     0.00998122 
C142     C      0.058650000000     0.241700000000     0.326780000000    -0.041368   
C143     C      0.016760000000     0.280760000000     0.192170000000     0.00946766 
C144     C      0.020380000000     0.193110000000     0.282380000000     0.179253   
H1       H      0.956930000000     0.961240000000     0.060960000000    -1.25604    
H2       H      0.044730000000     0.047310000000     0.050110000000    -1.10283    
H3       H      0.950250000000     0.117550000000     0.944890000000    -0.549119   
H4       H      0.116990000000     0.943710000000     0.956050000000    -0.592239   
H5       H      0.961600000000     0.556210000000     0.462310000000    -1.26025    
H6       H      0.046830000000     0.467750000000     0.472520000000    -1.07537    
H7       H      0.944970000000     0.396190000000     0.569550000000    -0.562594   
H8       H      0.120730000000     0.565140000000     0.574430000000    -0.506293   
H9       H      0.459810000000     0.959950000000     0.464290000000    -1.26952    
H10      H      0.545510000000     0.048430000000     0.470860000000    -1.05511    
H11      H      0.620630000000     0.951820000000     0.571950000000    -0.506053   
H12      H      0.445200000000     0.123700000000     0.569140000000    -0.507611   
H13      H      0.459830000000     0.554440000000     0.063420000000    -1.2815     
H14      H      0.467600000000     0.468820000000     0.974330000000    -1.08925    
H15      H      0.565770000000     0.395180000000     0.072950000000    -0.574152   
H16      H      0.565770000000     0.569900000000     0.900770000000    -0.497586   
H17      H      0.590010000000     0.294770000000     0.310610000000     0.026358   
H18      H      0.495480000000     0.370070000000     0.297960000000     0.0352919  
H19      H      0.590680000000     0.207990000000     0.217890000000    -0.00680789 
H20      H      0.495510000000     0.222190000000     0.141970000000     0.0500344  
H21      H      0.533170000000     0.286080000000     0.378660000000     0.0457942  
H22      H      0.438430000000     0.302090000000     0.305320000000     0.0285629  
H23      H      0.438790000000     0.211280000000     0.209890000000     0.0441094  
H24      H      0.555030000000     0.115300000000     0.175740000000     0.120658   
H25      H      0.596030000000     0.696380000000     0.301770000000     0.03049    
H26      H      0.511850000000     0.719090000000     0.384660000000     0.0375713  
H27      H      0.596690000000     0.790370000000     0.218760000000    -0.00350702 
H28      H      0.505040000000     0.870840000000     0.232940000000     0.0474707  
H29      H      0.533720000000     0.633380000000     0.296970000000     0.03876    
H30      H      0.446830000000     0.712040000000     0.324150000000     0.026411   
H31      H      0.445530000000     0.804940000000     0.226290000000     0.0439663  
H32      H      0.563340000000     0.835000000000     0.126530000000     0.127383   
H33      H      0.568880000000     0.732070000000     0.711280000000     0.0315216  
H34      H      0.486970000000     0.645760000000     0.732080000000     0.0371677  
H35      H      0.560050000000     0.828670000000     0.807370000000    -0.000983097
H36      H      0.476530000000     0.793420000000     0.887130000000     0.0537519  
H37      H      0.505900000000     0.733110000000     0.648490000000     0.0397226  
H38      H      0.420640000000     0.705050000000     0.729150000000     0.0296978  
H39      H      0.413130000000     0.793110000000     0.824660000000     0.051854   
H40      H      0.504950000000     0.912860000000     0.844740000000     0.134301   
H41      H      0.422940000000     0.218760000000     0.815630000000     0.0240991  
H42      H      0.518790000000     0.146960000000     0.796260000000     0.0435708  
H43      H      0.414730000000     0.303670000000     0.723170000000    -0.0103584  
H44      H      0.505020000000     0.296240000000     0.642540000000     0.0566883  
H45      H      0.482580000000     0.229000000000     0.880870000000     0.0395865  
H46      H      0.574140000000     0.216290000000     0.801920000000     0.035624   
H47      H      0.565200000000     0.309280000000     0.707170000000     0.0515634  
H48      H      0.420390000000     0.409010000000     0.724830000000     0.157231   
H49      H      0.783420000000     0.205290000000     0.402990000000     0.024054   
H50      H      0.870090000000     0.225970000000     0.483930000000     0.0325359  
H51      H      0.697140000000     0.296870000000     0.407200000000    -0.00799554 
H52      H      0.722530000000     0.379180000000     0.493050000000     0.0606786  
H53      H      0.782800000000     0.141030000000     0.464640000000     0.0364888  
H54      H      0.813180000000     0.219080000000     0.552270000000     0.0289164  
H55      H      0.717410000000     0.317750000000     0.557610000000     0.0532541  
H56      H      0.610730000000     0.342730000000     0.454110000000     0.12265    
H57      H      0.728570000000     0.704560000000     0.585320000000     0.0337011  
H58      H      0.642700000000     0.725080000000     0.502770000000     0.0372264  
H59      H      0.819450000000     0.799250000000     0.579300000000     0.0029934  
H60      H      0.790090000000     0.879240000000     0.492180000000     0.0464786  
H61      H      0.730180000000     0.641350000000     0.522630000000     0.0490937  
H62      H      0.701470000000     0.720680000000     0.435760000000     0.0314881  
H63      H      0.792300000000     0.815940000000     0.429420000000     0.0449514  
H64      H      0.905040000000     0.841060000000     0.528940000000     0.135724   
H65      H      0.289650000000     0.319620000000     0.552450000000     0.0252939  
H66      H      0.372400000000     0.289020000000     0.470270000000     0.0337238  
H67      H      0.195600000000     0.219930000000     0.556210000000    -0.00879921 
H68      H      0.224330000000     0.134930000000     0.473940000000     0.0647833  
H69      H      0.284590000000     0.374150000000     0.481980000000     0.0354038  
H70      H      0.311590000000     0.286320000000     0.405070000000     0.0258013  
H71      H      0.222990000000     0.194770000000     0.407670000000     0.0524569  
H72      H      0.108730000000     0.177680000000     0.510110000000     0.125174   
H73      H      0.299470000000     0.699530000000     0.443010000000     0.0234937  
H74      H      0.378470000000     0.725760000000     0.530330000000     0.0389782  
H75      H      0.212500000000     0.795770000000     0.437680000000    -0.00774221 
H76      H      0.228360000000     0.877990000000     0.527800000000     0.0533231  
H77      H      0.291870000000     0.639700000000     0.508660000000     0.0297118  
H78      H      0.315550000000     0.722340000000     0.593260000000     0.0334023  
H79      H      0.221690000000     0.813900000000     0.589530000000     0.0537107  
H80      H      0.120900000000     0.839050000000     0.472350000000     0.12777    
H81      H      0.815870000000     0.438290000000     0.222430000000     0.0258609  
H82      H      0.790180000000     0.522800000000     0.140300000000     0.0442164  
H83      H      0.719370000000     0.435780000000     0.309130000000    -0.00458085 
H84      H      0.638380000000     0.526680000000     0.291820000000     0.0554787  
H85      H      0.875600000000     0.503810000000     0.228230000000     0.029025   
H86      H      0.793550000000     0.587430000000     0.201810000000     0.0325414  
H87      H      0.703560000000     0.586990000000     0.296270000000     0.050092   
H88      H      0.676620000000     0.471220000000     0.400920000000     0.128211   
H89      H      0.289580000000     0.405340000000     0.318280000000     0.0227501  
H90      H      0.376080000000     0.487470000000     0.303660000000     0.036438   
H91      H      0.207450000000     0.415710000000     0.223430000000    -0.00878963 
H92      H      0.229100000000     0.511960000000     0.149880000000     0.0464816  
H93      H      0.286610000000     0.462660000000     0.386340000000     0.0355996  
H94      H      0.318760000000     0.554750000000     0.314760000000     0.0273255  
H95      H      0.224000000000     0.567390000000     0.219610000000     0.0434379  
H96      H      0.119750000000     0.461000000000     0.179400000000     0.121779   
H97      H      0.213170000000     0.549470000000     0.839360000000     0.0253938  
H98      H      0.138910000000     0.465210000000     0.797420000000     0.0387644  
H99      H      0.293420000000     0.575720000000     0.741520000000    -0.00611422 
H100     H      0.288090000000     0.496210000000     0.646750000000     0.0478243  
H101     H      0.227320000000     0.474670000000     0.885950000000     0.0304755  
H102     H      0.204090000000     0.405200000000     0.791850000000     0.0283081  
H103     H      0.299460000000     0.428040000000     0.703550000000     0.0413549  
H104     H      0.386930000000     0.559960000000     0.691700000000     0.124677   
H105     H      0.814700000000     0.579890000000     0.799280000000     0.0357724  
H106     H      0.790050000000     0.490170000000     0.877200000000     0.044523   
H107     H      0.722760000000     0.588030000000     0.710300000000    -0.00134404 
H108     H      0.637640000000     0.502580000000     0.727320000000     0.0539378  
H109     H      0.875310000000     0.515350000000     0.792380000000     0.0414922  
H110     H      0.792090000000     0.429790000000     0.811500000000     0.0340393  
H111     H      0.697880000000     0.437640000000     0.718440000000     0.0518624  
H112     H      0.679610000000     0.554840000000     0.617580000000     0.129848   
H113     H      0.698410000000     0.788980000000     0.090470000000     0.0335919  
H114     H      0.723380000000     0.875690000000     0.011100000000     0.0386487  
H115     H      0.793670000000     0.701720000000     0.087750000000    -0.00252269 
H116     H      0.875710000000     0.726560000000     0.000630000000     0.0573333  
H117     H      0.638250000000     0.787400000000     0.024930000000     0.0456251  
H118     H      0.719230000000     0.818980000000     0.942070000000     0.0313081  
H119     H      0.813030000000     0.724130000000     0.937470000000     0.0528703  
H120     H      0.836550000000     0.613210000000     0.045170000000     0.128848   
H121     H      0.795640000000     0.315910000000     0.076750000000     0.0310605  
H122     H      0.874680000000     0.289370000000     0.989180000000     0.0320718  
H123     H      0.708070000000     0.222180000000     0.084260000000    -0.00518281 
H124     H      0.724270000000     0.136840000000     0.997730000000     0.0661223  
H125     H      0.789770000000     0.375190000000     0.010180000000     0.0403044  
H126     H      0.810700000000     0.290290000000     0.926970000000     0.028422   
H127     H      0.718240000000     0.198650000000     0.933430000000     0.0531067  
H128     H      0.615810000000     0.179340000000     0.051980000000     0.122745   
H129     H      0.192240000000     0.726700000000     0.969530000000     0.0315518  
H130     H      0.227460000000     0.637520000000     0.041260000000     0.0316537  
H131     H      0.292780000000     0.834030000000     0.980270000000    -0.00345118 
H132     H      0.377450000000     0.789330000000     0.050500000000     0.0563163  
H133     H      0.140440000000     0.724190000000     0.042100000000     0.0415802  
H134     H      0.230730000000     0.691150000000     0.112760000000     0.0256595  
H135     H      0.322180000000     0.778840000000     0.119550000000     0.0488208  
H136     H      0.327210000000     0.910300000000     0.047630000000     0.126154   
H137     H      0.276500000000     0.188320000000     0.942960000000     0.0222186  
H138     H      0.374070000000     0.224960000000     0.000070000000     0.0355699  
H139     H      0.179910000000     0.287690000000     0.954030000000    -0.00879353 
H140     H      0.227490000000     0.377860000000     0.015270000000     0.0435052  
H141     H      0.286960000000     0.139050000000     0.016610000000     0.0317283  
H142     H      0.331940000000     0.230130000000     0.078700000000     0.026944   
H143     H      0.239570000000     0.328540000000     0.088650000000     0.0437264  
H144     H      0.106280000000     0.331460000000     0.018360000000     0.121471   
H145     H      0.814210000000     0.937630000000     0.718590000000     0.0329764  
H146     H      0.792790000000     0.028390000000     0.641500000000     0.0333292  
H147     H      0.718650000000     0.935830000000     0.803900000000    -0.0035443  
H148     H      0.642820000000     0.031140000000     0.794750000000     0.0623166  
H149     H      0.878070000000     0.998710000000     0.726980000000     0.0454741  
H150     H      0.800590000000     0.088820000000     0.706740000000     0.0314335  
H151     H      0.711150000000     0.087610000000     0.802460000000     0.0548159  
H152     H      0.716310000000     0.946120000000     0.909330000000     0.14684    
H153     H      0.295480000000     0.932660000000     0.823190000000     0.03146    
H154     H      0.377380000000     0.015820000000     0.795740000000     0.048608   
H155     H      0.211800000000     0.925770000000     0.726350000000    -0.00086614 
H156     H      0.229440000000     0.011740000000     0.640720000000     0.0561618  
H157     H      0.289060000000     0.000030000000     0.881230000000     0.0318744  
H158     H      0.316760000000     0.081020000000     0.796740000000     0.0346003  
H159     H      0.222450000000     0.076010000000     0.702320000000     0.0530821  
H160     H      0.120950000000     0.958120000000     0.680050000000     0.131895   
H161     H      0.310070000000     0.952760000000     0.221010000000     0.0326287  
H162     H      0.284080000000     0.043000000000     0.144210000000     0.0406101  
H163     H      0.213810000000     0.944930000000     0.310040000000    -0.0103479  
H164     H      0.131690000000     0.031490000000     0.294050000000     0.0639313  
H165     H      0.369280000000     0.018430000000     0.230300000000     0.0357368  
H166     H      0.285750000000     0.102780000000     0.210450000000     0.0261995  
H167     H      0.193200000000     0.095400000000     0.302430000000     0.0536484  
H168     H      0.207590000000     0.961080000000     0.414250000000     0.139482   
H169     H      0.809220000000     0.111040000000     0.287170000000     0.024407   
H170     H      0.785660000000     0.034390000000     0.376640000000     0.0350101  
H171     H      0.717980000000     0.108730000000     0.202020000000    -0.00495409 
H172     H      0.632570000000     0.026690000000     0.228180000000     0.0559278  
H173     H      0.870670000000     0.046990000000     0.288320000000     0.0322461  
H174     H      0.789960000000     0.964120000000     0.321770000000     0.0266838  
H175     H      0.691430000000     0.960110000000     0.224330000000     0.0456722  
H176     H      0.673450000000     0.068120000000     0.113110000000     0.126018   
H177     H      0.105260000000     0.288350000000     0.806530000000     0.0241856  
H178     H      0.016420000000     0.369800000000     0.796420000000     0.0383776  
H179     H      0.100530000000     0.204990000000     0.715200000000    -0.00183157 
H180     H      0.006020000000     0.222970000000     0.639570000000     0.0477756  
H181     H      0.050710000000     0.282910000000     0.876590000000     0.0339091  
H182     H      0.954600000000     0.306230000000     0.805430000000     0.0358193  
H183     H      0.948930000000     0.213620000000     0.707440000000     0.0484534  
H184     H      0.063150000000     0.113610000000     0.672320000000     0.134637   
H185     H      0.070680000000     0.694650000000     0.797070000000     0.0339508  
H186     H      0.993750000000     0.721610000000     0.885270000000     0.0410058  
H187     H      0.063900000000     0.794220000000     0.704830000000     0.00212371 
H188     H      0.976320000000     0.873560000000     0.735000000000     0.06079    
H189     H      0.004190000000     0.635870000000     0.795760000000     0.0400929  
H190     H      0.924310000000     0.718230000000     0.829470000000     0.0343173  
H191     H      0.915900000000     0.808540000000     0.736830000000     0.0542272  
H192     H      0.014220000000     0.833640000000     0.618360000000     0.13319    
H193     H      0.937020000000     0.816660000000     0.308630000000     0.0258379  
H194     H      0.029970000000     0.794010000000     0.382360000000     0.0489147  
H195     H      0.928370000000     0.721320000000     0.225790000000    -0.00907106 
H196     H      0.022120000000     0.641170000000     0.231060000000     0.0494081  
H197     H      0.999430000000     0.879010000000     0.296930000000     0.0304606  
H198     H      0.087620000000     0.798990000000     0.314500000000     0.0319725  
H199     H      0.079610000000     0.708290000000     0.219960000000     0.0492503  
H200     H      0.951860000000     0.677350000000     0.130560000000     0.125328   
H201     H      0.962940000000     0.292060000000     0.194730000000     0.0253232  
H202     H      0.036250000000     0.379990000000     0.227790000000     0.0421559  
H203     H      0.966820000000     0.196610000000     0.295730000000    -0.00862281 
H204     H      0.046960000000     0.229960000000     0.379540000000     0.0661166  
H205     H      0.033070000000     0.291230000000     0.140330000000     0.0443047  
H206     H      0.107090000000     0.326100000000     0.227520000000     0.0308893  
H207     H      0.112630000000     0.233340000000     0.319410000000     0.0496187  
H208     H      0.019370000000     0.112370000000     0.335810000000     0.123573   
N1       N      0.535020000000     0.205040000000     0.307070000000    -0.245452   
N2       N      0.492290000000     0.301410000000     0.215000000000    -0.216813   
N3       N      0.535300000000     0.705260000000     0.216200000000    -0.218289   
N4       N      0.503180000000     0.799890000000     0.314190000000    -0.217032   
N5       N      0.504710000000     0.814810000000     0.719140000000    -0.210359   
N6       N      0.480700000000     0.714070000000     0.814900000000    -0.213756   
N7       N      0.474300000000     0.310370000000     0.810230000000    -0.246042   
N8       N      0.516440000000     0.216670000000     0.713880000000    -0.203974   
N9       N      0.702140000000     0.211960000000     0.469150000000    -0.241365   
N10      N      0.801730000000     0.307460000000     0.496480000000    -0.212786   
N11      N      0.811180000000     0.712270000000     0.520870000000    -0.212638   
N12      N      0.710740000000     0.807370000000     0.494410000000    -0.214343   
N13      N      0.204410000000     0.303500000000     0.493150000000    -0.245384   
N14      N      0.303590000000     0.206920000000     0.473380000000    -0.214585   
N15      N      0.211770000000     0.710720000000     0.499570000000    -0.231533   
N16      N      0.308950000000     0.807380000000     0.531900000000    -0.196249   
N17      N      0.804160000000     0.497490000000     0.308840000000    -0.235563   
N18      N      0.709080000000     0.526180000000     0.210590000000    -0.192422   
N19      N      0.207540000000     0.470590000000     0.313420000000    -0.245845   
N20      N      0.308370000000     0.505380000000     0.222370000000    -0.216211   
N21      N      0.303990000000     0.502400000000     0.816040000000    -0.249316   
N22      N      0.208330000000     0.478140000000     0.716480000000    -0.207475   
N23      N      0.805440000000     0.523700000000     0.710520000000    -0.210031   
N24      N      0.708350000000     0.492600000000     0.807440000000    -0.204324   
N25      N      0.709100000000     0.706510000000     0.025920000000    -0.209412   
N26      N      0.804800000000     0.807070000000     0.001350000000    -0.197933   
N27      N      0.709000000000     0.304270000000     0.018430000000    -0.230077   
N28      N      0.804460000000     0.208140000000     0.992270000000    -0.216482   
N29      N      0.208490000000     0.806430000000     0.036060000000    -0.236903   
N30      N      0.307520000000     0.708800000000     0.043400000000    -0.218889   
N31      N      0.205850000000     0.208670000000     0.017910000000    -0.247173   
N32      N      0.307410000000     0.307370000000     0.011960000000    -0.23057    
N33      N      0.807320000000     0.992710000000     0.808220000000    -0.213098   
N34      N      0.712540000000     0.032460000000     0.712810000000    -0.206063   
N35      N      0.210050000000     0.991720000000     0.808370000000    -0.227678   
N36      N      0.308900000000     0.017840000000     0.713060000000    -0.191779   
N37      N      0.298980000000     0.006560000000     0.311060000000    -0.23377    
N38      N      0.202240000000     0.039700000000     0.213630000000    -0.225812   
N39      N      0.799350000000     0.042900000000     0.207420000000    -0.234407   
N40      N      0.704080000000     0.022520000000     0.308020000000    -0.227175   
N41      N      0.043790000000     0.203040000000     0.803750000000    -0.229433   
N42      N      0.005840000000     0.301600000000     0.713570000000    -0.210327   
N43      N      0.006470000000     0.706980000000     0.714640000000    -0.210233   
N44      N      0.984570000000     0.802800000000     0.815810000000    -0.191032   
N45      N      0.988920000000     0.806630000000     0.217400000000    -0.236407   
N46      N      0.028310000000     0.712510000000     0.311850000000    -0.214314   
N47      N      0.026530000000     0.210220000000     0.210340000000    -0.243803   
N48      N      0.043180000000     0.310740000000     0.309390000000    -0.223998   
O1       O      0.019390000000     0.180640000000     0.097090000000    -1.04482    
O2       O      0.002860000000     0.833120000000     0.105260000000    -0.781559   
O3       O      0.910190000000     0.021440000000     0.181550000000    -1.00502    
O4       O      0.091960000000     0.023420000000     0.183290000000    -1.05824    
O5       O      0.175330000000     0.026830000000     0.101430000000    -1.09476    
O6       O      0.829200000000     0.022100000000     0.096830000000    -0.784148   
O7       O      0.996820000000     0.918280000000     0.185970000000    -1.01157    
O8       O      0.017970000000     0.098880000000     0.180550000000    -1.07824    
O9       O      0.075390000000     0.944440000000     0.085770000000    -2.10461    
O10      O      0.941430000000     0.081730000000     0.078560000000    -2.10954    
O11      O      0.931300000000     0.937960000000     0.086720000000    -0.866852   
O12      O      0.019530000000     0.021330000000     0.024200000000    -2.61187    
O13      O      0.998510000000     0.833060000000     0.927610000000    -0.697482   
O14      O      0.023070000000     0.177080000000     0.914970000000    -0.946877   
O15      O      0.833350000000     0.919650000000     0.008400000000    -0.731555   
O16      O      0.177770000000     0.916750000000     0.025590000000    -1.00472    
O17      O      0.177270000000     0.096080000000     0.019970000000    -1.08164    
O18      O      0.832630000000     0.097850000000     0.008440000000    -0.785092   
O19      O      0.919670000000     0.002670000000     0.836860000000    -0.581549   
O20      O      0.098120000000     0.000530000000     0.835930000000    -0.615507   
O21      O      0.836710000000     0.999430000000     0.920720000000    -0.71474    
O22      O      0.179320000000     0.003230000000     0.920280000000    -0.943744   
O23      O      0.916450000000     0.835300000000     0.010360000000    -0.720017   
O24      O      0.915600000000     0.180370000000     0.003170000000    -0.974179   
O25      O      0.094770000000     0.178390000000     0.021310000000    -1.08199    
O26      O      0.095770000000     0.833380000000     0.028300000000    -0.758661   
O27      O      0.001310000000     0.914300000000     0.841130000000    -0.589336   
O28      O      0.022090000000     0.092700000000     0.833380000000    -0.607109   
O29      O      0.078050000000     0.074640000000     0.946200000000    -2.05159    
O30      O      0.946120000000     0.945360000000     0.949970000000    -1.61479    
O31      O      0.935610000000     0.074660000000     0.934240000000    -1.2419     
O32      O      0.074820000000     0.930840000000     0.941780000000    -1.21624    
O33      O      0.024940000000     0.337440000000     0.421120000000    -1.06423    
O34      O      0.019130000000     0.684110000000     0.423950000000    -0.781669   
O35      O      0.916060000000     0.506890000000     0.338360000000    -1.00837    
O36      O      0.097390000000     0.491210000000     0.342020000000    -1.04927    
O37      O      0.179200000000     0.486790000000     0.424990000000    -1.05126    
O38      O      0.833080000000     0.504270000000     0.421100000000    -0.7816     
O39      O      0.014430000000     0.601360000000     0.340330000000    -1.0261     
O40      O      0.023600000000     0.420790000000     0.338970000000    -1.06089    
O41      O      0.081310000000     0.570470000000     0.441690000000    -2.09236    
O42      O      0.943200000000     0.437270000000     0.439190000000    -2.11625    
O43      O      0.937800000000     0.581550000000     0.436700000000    -0.866819   
O44      O      0.021620000000     0.493440000000     0.498660000000    -2.58489    
O45      O      0.006910000000     0.677150000000     0.601750000000    -0.69755    
O46      O      0.007290000000     0.333210000000     0.602090000000    -0.955406   
O47      O      0.837740000000     0.599160000000     0.513360000000    -0.723675   
O48      O      0.182140000000     0.597840000000     0.507130000000    -0.934292   
O49      O      0.177110000000     0.415790000000     0.498660000000    -1.04798    
O50      O      0.832560000000     0.419390000000     0.501300000000    -0.747735   
O51      O      0.917710000000     0.510730000000     0.683710000000    -0.588097   
O52      O      0.096840000000     0.492090000000     0.688910000000    -0.627443   
O53      O      0.836430000000     0.516310000000     0.598140000000    -0.697342   
O54      O      0.179460000000     0.495200000000     0.605470000000    -0.942049   
O55      O      0.922970000000     0.680830000000     0.515610000000    -0.715268   
O56      O      0.913890000000     0.335050000000     0.500750000000    -0.965664   
O57      O      0.093370000000     0.334690000000     0.499470000000    -1.05918    
O58      O      0.099990000000     0.680820000000     0.504460000000    -0.752369   
O59      O      0.008700000000     0.594050000000     0.685960000000    -0.594135   
O60      O      0.007970000000     0.414320000000     0.687310000000    -0.634615   
O61      O      0.076200000000     0.434850000000     0.575540000000    -2.00969    
O62      O      0.948190000000     0.568190000000     0.574080000000    -1.60687    
O63      O      0.932990000000     0.438980000000     0.583330000000    -1.23403    
O64      O      0.077650000000     0.578190000000     0.586320000000    -1.26256    
O65      O      0.677010000000     0.022400000000     0.420500000000    -1.04898    
O66      O      0.330120000000     0.008090000000     0.423660000000    -0.777307   
O67      O      0.504060000000     0.912150000000     0.341770000000    -1.02908    
O68      O      0.520490000000     0.093940000000     0.338490000000    -1.06314    
O69      O      0.522180000000     0.178530000000     0.419070000000    -1.04831    
O70      O      0.509420000000     0.830330000000     0.426360000000    -0.795187   
O71      O      0.411810000000     0.006660000000     0.339600000000    -1.00163    
O72      O      0.593460000000     0.016290000000     0.338970000000    -1.07893    
O73      O      0.442280000000     0.078620000000     0.439090000000    -2.11046    
O74      O      0.578040000000     0.944010000000     0.441580000000    -2.08653    
O75      O      0.435040000000     0.934470000000     0.439800000000    -0.87679    
O76      O      0.520730000000     0.023340000000     0.497980000000    -2.56777    
O77      O      0.337840000000     0.009790000000     0.601240000000    -0.730882   
O78      O      0.681890000000     0.021970000000     0.600970000000    -0.929867   
O79      O      0.420770000000     0.836050000000     0.522130000000    -0.741193   
O80      O      0.414190000000     0.181510000000     0.494900000000    -0.952812   
O81      O      0.592710000000     0.181700000000     0.490340000000    -1.03433    
O82      O      0.598870000000     0.835190000000     0.504200000000    -0.774356   
O83      O      0.509100000000     0.926720000000     0.686930000000    -0.572938   
O84      O      0.514650000000     0.104330000000     0.686520000000    -0.627516   
O85      O      0.505960000000     0.840960000000     0.605430000000    -0.72624    
O86      O      0.510530000000     0.185240000000     0.601240000000    -0.915092   
O87      O      0.336790000000     0.919480000000     0.520470000000    -0.738032   
O88      O      0.680720000000     0.919070000000     0.504040000000    -0.932462   
O89      O      0.676040000000     0.100300000000     0.488560000000    -1.02802    
O90      O      0.332770000000     0.097290000000     0.495600000000    -0.765613   
O91      O      0.421170000000     0.015280000000     0.685190000000    -0.578619   
O92      O      0.600690000000     0.022730000000     0.685770000000    -0.620319   
O93      O      0.578090000000     0.083340000000     0.572660000000    -1.9826     
O94      O      0.448260000000     0.950270000000     0.576270000000    -1.60404    
O95      O      0.577960000000     0.939290000000     0.585630000000    -1.2487     
O96      O      0.434460000000     0.080380000000     0.583010000000    -1.2708     
O97      O      0.418590000000     0.335560000000     0.001870000000    -1.08581    
O98      O      0.417990000000     0.683160000000     0.021940000000    -0.801106   
O99      O      0.337650000000     0.507240000000     0.110110000000    -1.02513    
O100     O      0.335620000000     0.499030000000     0.927630000000    -1.10483    
O101     O      0.416210000000     0.499660000000     0.843210000000    -1.02816    
O102     O      0.420500000000     0.502720000000     0.193340000000    -0.796841   
O103     O      0.336020000000     0.599230000000     0.023440000000    -1.05244    
O104     O      0.337130000000     0.418830000000     0.007040000000    -1.11068    
O105     O      0.435800000000     0.573040000000     0.944530000000    -2.09834    
O106     O      0.437770000000     0.435520000000     0.079050000000    -2.14695    
O107     O      0.435280000000     0.578760000000     0.089230000000    -0.879255   
O108     O      0.494070000000     0.493880000000     0.999910000000    -2.59352    
O109     O      0.596540000000     0.678450000000     0.019130000000    -0.713276   
O110     O      0.598080000000     0.334610000000     0.009320000000    -0.954955   
O111     O      0.517420000000     0.593870000000     0.187980000000    -0.744541   
O112     O      0.497270000000     0.602360000000     0.841490000000    -0.927113   
O113     O      0.487510000000     0.421830000000     0.840860000000    -1.02979    
O114     O      0.499560000000     0.414180000000     0.188300000000    -0.776987   
O115     O      0.680400000000     0.511740000000     0.098880000000    -0.579517   
O116     O      0.681140000000     0.499290000000     0.920150000000    -0.623404   
O117     O      0.597950000000     0.511970000000     0.183930000000    -0.730679   
O118     O      0.597010000000     0.502180000000     0.838350000000    -0.91191    
O119     O      0.517720000000     0.677880000000     0.104340000000    -0.734368   
O120     O      0.499890000000     0.332720000000     0.103470000000    -0.955941   
O121     O      0.489920000000     0.337870000000     0.922300000000    -1.07213    
O122     O      0.492990000000     0.683540000000     0.926460000000    -0.784054   
O123     O      0.679200000000     0.594590000000     0.013740000000    -0.566223   
O124     O      0.681650000000     0.416180000000     0.009640000000    -0.640352   
O125     O      0.569360000000     0.436870000000     0.940520000000    -1.98971    
O126     O      0.569780000000     0.566360000000     0.074100000000    -1.62902    
O127     O      0.580340000000     0.437410000000     0.085690000000    -1.23057    
O128     O      0.579030000000     0.581500000000     0.944120000000    -1.26079    
O129     O      0.533800000000     0.122790000000     0.219780000000    -0.26599    
O130     O      0.538420000000     0.793160000000     0.134200000000    -0.261959   
O131     O      0.483070000000     0.896590000000     0.803500000000    -0.265587   
O132     O      0.466520000000     0.392420000000     0.722760000000    -0.271989   
O133     O      0.620340000000     0.299030000000     0.474980000000    -0.260409   
O134     O      0.892630000000     0.798520000000     0.507180000000    -0.2575     
O135     O      0.122650000000     0.217120000000     0.483850000000    -0.264035   
O136     O      0.129940000000     0.798150000000     0.498520000000    -0.258616   
O137     O      0.716720000000     0.498070000000     0.391160000000    -0.261609   
O138     O      0.127630000000     0.479770000000     0.224520000000    -0.263627   
O139     O      0.382810000000     0.527990000000     0.729200000000    -0.264385   
O140     O      0.719340000000     0.527410000000     0.627190000000    -0.259476   
O141     O      0.796240000000     0.624900000000     0.019330000000    -0.263264   
O142     O      0.625880000000     0.217910000000     0.022800000000    -0.265616   
O143     O      0.288960000000     0.887440000000     0.068650000000    -0.267054   
O144     O      0.128240000000     0.294810000000     0.043060000000    -0.26418    
O145     O      0.719760000000     0.991700000000     0.890830000000    -0.26847    
O146     O      0.129610000000     0.986690000000     0.719480000000    -0.258113   
O147     O      0.211890000000     0.005760000000     0.393680000000    -0.27453    
O148     O      0.712600000000     0.040700000000     0.124920000000    -0.261804   
O149     O      0.040900000000     0.121590000000     0.715750000000    -0.258267   
O150     O      0.990100000000     0.793220000000     0.633080000000    -0.250924   
O151     O      0.978250000000     0.718640000000     0.135970000000    -0.263331   
O152     O      0.043930000000     0.128870000000     0.296230000000    -0.262678   
Tb1      Tb     0.002060000000     0.008650000000     0.123420000000     6.3617     
Tb2      Tb     0.006610000000     0.895610000000     0.017870000000     4.26609    
Tb3      Tb     0.005820000000     0.119640000000     0.006410000000     6.40082    
Tb4      Tb     0.894950000000     0.010140000000     0.012180000000     4.40214    
Tb5      Tb     0.117920000000     0.005010000000     0.011610000000     6.56506    
Tb6      Tb     0.010530000000     0.006420000000     0.898410000000     3.19204    
Tb7      Tb     0.007260000000     0.509770000000     0.399420000000     6.37909    
Tb8      Tb     0.011980000000     0.618390000000     0.509510000000     4.35953    
Tb9      Tb     0.004450000000     0.394830000000     0.511830000000     6.43845    
Tb10     Tb     0.896800000000     0.507380000000     0.507430000000     4.31672    
Tb11     Tb     0.120280000000     0.506840000000     0.514300000000     6.24322    
Tb12     Tb     0.009740000000     0.503040000000     0.624770000000     3.18919    
Tb13     Tb     0.504210000000     0.004960000000     0.399410000000     6.43505    
Tb14     Tb     0.396280000000     0.010380000000     0.509200000000     4.35756    
Tb15     Tb     0.619590000000     0.009590000000     0.511540000000     6.16332    
Tb16     Tb     0.510170000000     0.897730000000     0.511490000000     4.3902     
Tb17     Tb     0.504640000000     0.122440000000     0.510230000000     6.27841    
Tb18     Tb     0.511710000000     0.016030000000     0.623950000000     3.15009    
Tb19     Tb     0.396180000000     0.509250000000     0.017710000000     6.53512    
Tb20     Tb     0.504550000000     0.619040000000     0.013680000000     4.42866    
Tb21     Tb     0.508120000000     0.394930000000     0.013810000000     6.45766    
Tb22     Tb     0.505880000000     0.504050000000     0.126470000000     4.4125     
Tb23     Tb     0.507110000000     0.510660000000     0.900730000000     6.15204    
Tb24     Tb     0.618840000000     0.503980000000     0.008920000000     3.15262    


