data_structure

_audit_creation_method RASPA-1.0
_audit_creation_date 2023-5-19
_audit_author_name 'Poobodin Mano'

_cell_length_a    32.3843
_cell_length_b    32.3994
_cell_length_c    32.4114
_cell_angle_alpha 90
_cell_angle_beta  90
_cell_angle_gamma 90
_cell_volume      34007.1

_symmetry_cell_setting          triclinic
_symmetry_space_group_name_Hall 'P 1'
_symmetry_space_group_name_H-M  'P 1'
_symmetry_Int_Tables_number     1

_symmetry_equiv_pos_as_xyz 'x,y,z'

loop_
_atom_site_label
_atom_site_type_symbol
_atom_site_fract_x
_atom_site_fract_y
_atom_site_fract_z
_atom_site_charge
C1       C      0.018390000000     0.100710000000     0.099770000000     0.738704   
C2       C      0.005490000000     0.908590000000     0.100920000000     0.699968   
C3       C      0.906460000000     0.010780000000     0.100350000000     0.670763   
C4       C      0.099220000000     0.017460000000     0.099690000000     0.750235   
C5       C      0.000490000000     0.910770000000     0.910810000000     0.558075   
C6       C      0.012730000000     0.100910000000     0.908060000000     0.673135   
C7       C      0.908330000000     0.911760000000     0.002160000000     0.601747   
C8       C      0.098620000000     0.907690000000     0.014020000000     0.691833   
C9       C      0.100870000000     0.099050000000     0.018360000000     0.705087   
C10      C      0.909380000000     0.102840000000     0.011940000000     0.691245   
C11      C      0.910690000000     0.003960000000     0.910220000000     0.595861   
C12      C      0.101050000000     0.008740000000     0.908370000000     0.643741   
C13      C      0.018030000000     0.410810000000     0.409930000000     0.716615   
C14      C      0.008870000000     0.603120000000     0.410830000000     0.678683   
C15      C      0.908450000000     0.503660000000     0.408400000000     0.705322   
C16      C      0.101030000000     0.492670000000     0.412120000000     0.747429   
C17      C      0.000300000000     0.598800000000     0.600940000000     0.580487   
C18      C      0.008880000000     0.408510000000     0.601320000000     0.650096   
C19      C      0.909930000000     0.600050000000     0.506910000000     0.593538   
C20      C      0.100770000000     0.601810000000     0.501200000000     0.712577   
C21      C      0.098430000000     0.409990000000     0.492280000000     0.742383   
C22      C      0.906730000000     0.409860000000     0.495340000000     0.709619   
C23      C      0.908310000000     0.507900000000     0.598430000000     0.571272   
C24      C      0.098680000000     0.497050000000     0.603410000000     0.657418   
C25      C      0.599090000000     0.018820000000     0.410550000000     0.754133   
C26      C      0.406560000000     0.008510000000     0.409960000000     0.672992   
C27      C      0.506770000000     0.908530000000     0.409850000000     0.685057   
C28      C      0.514580000000     0.100630000000     0.409720000000     0.756104   
C29      C      0.410840000000     0.003010000000     0.600150000000     0.592175   
C30      C      0.601040000000     0.011650000000     0.601900000000     0.644089   
C31      C      0.410330000000     0.910700000000     0.508260000000     0.592448   
C32      C      0.407370000000     0.101490000000     0.497410000000     0.693815   
C33      C      0.598700000000     0.100590000000     0.490510000000     0.723119   
C34      C      0.601150000000     0.909430000000     0.498290000000     0.714238   
C35      C      0.502630000000     0.911490000000     0.599970000000     0.568052   
C36      C      0.510540000000     0.102360000000     0.601180000000     0.660103   
C37      C      0.409720000000     0.410280000000     0.018880000000     0.747413   
C38      C      0.601940000000     0.410880000000     0.007150000000     0.705936   
C39      C      0.501870000000     0.410360000000     0.907910000000     0.712229   
C40      C      0.494590000000     0.410540000000     0.100200000000     0.735366   
C41      C      0.597500000000     0.601360000000     0.001570000000     0.559128   
C42      C      0.407300000000     0.601660000000     0.012910000000     0.676319   
C43      C      0.598200000000     0.509550000000     0.909460000000     0.611206   
C44      C      0.601870000000     0.499020000000     0.099650000000     0.702147   
C45      C      0.410110000000     0.491220000000     0.100900000000     0.71849    
C46      C      0.407470000000     0.497210000000     0.909440000000     0.721953   
C47      C      0.504760000000     0.600990000000     0.911150000000     0.591084   
C48      C      0.498300000000     0.601830000000     0.101830000000     0.68653    
C49      C      0.515250000000     0.150780000000     0.307550000000    -0.241908   
C50      C      0.491920000000     0.390950000000     0.171190000000     0.113867   
C51      C      0.492970000000     0.339370000000     0.119430000000     0.114545   
C52      C      0.493650000000     0.360800000000     0.202060000000    -0.117692   
C53      C      0.478770000000     0.289600000000     0.261660000000    -0.0385297  
C54      C      0.483370000000     0.259430000000     0.292270000000    -0.0230216  
C55      C      0.500150000000     0.286450000000     0.223990000000    -0.00688265 
C56      C      0.494750000000     0.308430000000     0.149530000000    -0.115064   
C57      C      0.509470000000     0.225240000000     0.286080000000    -0.0324416  
C58      C      0.515020000000     0.202730000000     0.360340000000    -0.153274   
C59      C      0.530910000000     0.222140000000     0.248450000000    -0.0222664  
C60      C      0.516770000000     0.171570000000     0.390200000000     0.132487   
C61      C      0.516890000000     0.120250000000     0.338080000000     0.440635   
C62      C      0.526330000000     0.252310000000     0.217850000000    -0.0380382  
C63      C      0.495820000000     0.318900000000     0.191510000000     0.0639327  
C64      C      0.513580000000     0.192580000000     0.318370000000     0.120703   
C65      C      0.496500000000     0.651180000000     0.203700000000    -0.243567   
C66      C      0.505650000000     0.889900000000     0.338940000000     0.115179   
C67      C      0.507690000000     0.837790000000     0.390360000000     0.10735    
C68      C      0.504600000000     0.860130000000     0.308010000000    -0.119422   
C69      C      0.476120000000     0.790770000000     0.252410000000    -0.0372704  
C70      C      0.474200000000     0.760440000000     0.221970000000    -0.0228397  
C71      C      0.503020000000     0.786290000000     0.286120000000    -0.00834593 
C72      C      0.506650000000     0.807210000000     0.360190000000    -0.116597   
C73      C      0.499070000000     0.725080000000     0.224790000000    -0.0319747  
C74      C      0.496410000000     0.703400000000     0.150940000000    -0.14231    
C75      C      0.526040000000     0.720650000000     0.258430000000    -0.0227257  
C76      C      0.496170000000     0.672450000000     0.121140000000     0.124181   
C77      C      0.496160000000     0.620870000000     0.173240000000     0.447178   
C78      C      0.528010000000     0.750980000000     0.288810000000    -0.0372903  
C79      C      0.504870000000     0.818280000000     0.318510000000     0.0657713  
C80      C      0.497090000000     0.692840000000     0.192700000000     0.122834   
C81      C      0.505530000000     0.703110000000     0.860510000000    -0.225255   
C82      C      0.500370000000     0.840280000000     0.619200000000     0.0993473  
C83      C      0.501980000000     0.891730000000     0.671060000000     0.096062   
C84      C      0.500370000000     0.809200000000     0.649220000000    -0.106032   
C85      C      0.525290000000     0.750400000000     0.718340000000    -0.0379576  
C86      C      0.526170000000     0.719840000000     0.748950000000    -0.0235056  
C87      C      0.501920000000     0.786640000000     0.723710000000    -0.00377563 
C88      C      0.501890000000     0.861410000000     0.701860000000    -0.0997249  
C89      C      0.503680000000     0.724630000000     0.785800000000    -0.0271898  
C90      C      0.505090000000     0.650150000000     0.808770000000    -0.137095   
C91      C      0.480150000000     0.760800000000     0.791050000000    -0.0222911  
C92      C      0.505510000000     0.620340000000     0.840070000000     0.120028   
C93      C      0.505940000000     0.672640000000     0.891170000000     0.42959    
C94      C      0.479300000000     0.791360000000     0.760480000000    -0.0370312  
C95      C      0.501310000000     0.819450000000     0.691230000000     0.0575278  
C96      C      0.504820000000     0.692230000000     0.818700000000     0.11461    
C97      C      0.504720000000     0.308810000000     0.857790000000    -0.241778   
C98      C      0.512670000000     0.173390000000     0.619270000000     0.115959   
C99      C      0.513320000000     0.122290000000     0.671730000000     0.103235   
C100     C      0.512890000000     0.204570000000     0.648820000000    -0.119129   
C101     C      0.484860000000     0.260770000000     0.717920000000    -0.0372695  
C102     C      0.482870000000     0.291160000000     0.748280000000    -0.0225619  
C103     C      0.511670000000     0.226990000000     0.722450000000    -0.00733006 
C104     C      0.513630000000     0.152710000000     0.702080000000    -0.110159   
C105     C      0.507650000000     0.288310000000     0.783700000000    -0.0317704  
C106     C      0.503210000000     0.361960000000     0.806000000000    -0.146718   
C107     C      0.534700000000     0.254690000000     0.788070000000    -0.0220261  
C108     C      0.501610000000     0.391500000000     0.837150000000     0.131017   
C109     C      0.503080000000     0.339020000000     0.888320000000     0.449569   
C110     C      0.536670000000     0.224290000000     0.757730000000    -0.0368039  
C111     C      0.513010000000     0.194350000000     0.690720000000     0.0648358  
C112     C      0.505130000000     0.320130000000     0.816220000000     0.12449    
C113     C      0.804810000000     0.360720000000     0.484580000000    -0.235624   
C114     C      0.669430000000     0.120070000000     0.484150000000     0.11443    
C115     C      0.617180000000     0.171180000000     0.481030000000     0.11412    
C116     C      0.700030000000     0.150330000000     0.481430000000    -0.113076   
C117     C      0.757960000000     0.220300000000     0.457080000000    -0.0373131  
C118     C      0.788520000000     0.250790000000     0.458550000000    -0.0224099  
C119     C      0.721090000000     0.224880000000     0.479530000000    -0.00716485 
C120     C      0.646970000000     0.202210000000     0.478300000000    -0.119206   
C121     C      0.782880000000     0.286530000000     0.482520000000    -0.0306746  
C122     C      0.857190000000     0.308300000000     0.487530000000    -0.149529   
C123     C      0.745940000000     0.291120000000     0.504840000000    -0.02243    
C124     C      0.887120000000     0.339190000000     0.490820000000     0.133785   
C125     C      0.835370000000     0.390940000000     0.487920000000     0.43981    
C126     C      0.715440000000     0.260700000000     0.503350000000    -0.0369278  
C127     C      0.689000000000     0.192060000000     0.479200000000     0.0646893  
C128     C      0.815400000000     0.318870000000     0.484640000000     0.121518   
C129     C      0.703030000000     0.859140000000     0.497000000000    -0.239267   
C130     C      0.838880000000     0.619260000000     0.507340000000     0.101997   
C131     C      0.890560000000     0.671070000000     0.508090000000     0.100078   
C132     C      0.807960000000     0.649250000000     0.506440000000    -0.105969   
C133     C      0.749440000000     0.719650000000     0.526780000000    -0.0385021  
C134     C      0.718820000000     0.749960000000     0.524480000000    -0.0219817  
C135     C      0.786020000000     0.723430000000     0.503740000000    -0.00439997 
C136     C      0.860390000000     0.701870000000     0.507130000000    -0.107611   
C137     C      0.724080000000     0.784730000000     0.499070000000    -0.0316912  
C138     C      0.649950000000     0.807320000000     0.496610000000    -0.148596   
C139     C      0.760590000000     0.788410000000     0.475890000000    -0.0213811  
C140     C      0.620230000000     0.838540000000     0.496210000000     0.12742    
C141     C      0.672640000000     0.889720000000     0.496640000000     0.446052   
C142     C      0.791210000000     0.758120000000     0.478210000000    -0.0376987  
C143     C      0.818520000000     0.691140000000     0.505970000000     0.0598408  
C144     C      0.691930000000     0.817420000000     0.497350000000     0.122145   
C145     C      0.148620000000     0.308510000000     0.481770000000    -0.242475   
C146     C      0.388420000000     0.172350000000     0.492830000000     0.115197   
C147     C      0.336540000000     0.120760000000     0.491140000000     0.105825   
C148     C      0.358600000000     0.203260000000     0.489700000000    -0.119311   
C149     C      0.288160000000     0.261340000000     0.509550000000    -0.0381067  
C150     C      0.257860000000     0.291960000000     0.508080000000    -0.0232314  
C151     C      0.284580000000     0.225520000000     0.485330000000    -0.00805599 
C152     C      0.305870000000     0.150960000000     0.487940000000    -0.11452    
C153     C      0.223190000000     0.287540000000     0.482370000000    -0.0321871  
C154     C      0.200400000000     0.361570000000     0.483590000000    -0.148311   
C155     C      0.219660000000     0.251820000000     0.457960000000    -0.023011   
C156     C      0.169180000000     0.391160000000     0.486030000000     0.132922   
C157     C      0.118010000000     0.338810000000     0.484270000000     0.441399   
C158     C      0.250010000000     0.221140000000     0.459440000000    -0.0381799  
C159     C      0.316710000000     0.192820000000     0.487450000000     0.0639401  
C160     C      0.190350000000     0.319610000000     0.482060000000     0.120914   
C161     C      0.151410000000     0.703510000000     0.499660000000    -0.238506   
C162     C      0.391560000000     0.839580000000     0.510700000000     0.100099   
C163     C      0.339420000000     0.890890000000     0.509430000000     0.0997654  
C164     C      0.361710000000     0.808480000000     0.510560000000    -0.110269   
C165     C      0.293140000000     0.750520000000     0.483800000000    -0.0385835  
C166     C      0.262620000000     0.720070000000     0.482010000000    -0.0228551  
C167     C      0.287540000000     0.786030000000     0.508140000000    -0.00595669 
C168     C      0.308780000000     0.860560000000     0.509240000000    -0.109696   
C169     C      0.225750000000     0.724460000000     0.504450000000    -0.031929   
C170     C      0.203050000000     0.650380000000     0.503130000000    -0.149905   
C171     C      0.220230000000     0.759840000000     0.528950000000    -0.0223756  
C172     C      0.171770000000     0.620730000000     0.502160000000     0.135134   
C173     C      0.120770000000     0.673190000000     0.498620000000     0.43739    
C174     C      0.250770000000     0.790250000000     0.530800000000    -0.0381932  
C175     C      0.319730000000     0.818730000000     0.509500000000     0.0598563  
C176     C      0.193040000000     0.692360000000     0.502300000000     0.121604   
C177     C      0.807770000000     0.501230000000     0.356440000000    -0.240129   
C178     C      0.672990000000     0.495440000000     0.117600000000     0.109034   
C179     C      0.621960000000     0.496670000000     0.170130000000     0.11917    
C180     C      0.704260000000     0.494990000000     0.147140000000    -0.115138   
C181     C      0.762090000000     0.472490000000     0.217540000000    -0.038218   
C182     C      0.792610000000     0.473850000000     0.247910000000    -0.0219765  
C183     C      0.726740000000     0.497410000000     0.220870000000    -0.00731181 
C184     C      0.652430000000     0.496260000000     0.200430000000    -0.118096   
C185     C      0.788240000000     0.500110000000     0.282110000000    -0.0332708  
C186     C      0.861820000000     0.501050000000     0.305550000000    -0.154701   
C187     C      0.753140000000     0.525370000000     0.285120000000    -0.0215377  
C188     C      0.890890000000     0.502110000000     0.337250000000     0.134909   
C189     C      0.837480000000     0.502230000000     0.387460000000     0.443194   
C190     C      0.722700000000     0.524040000000     0.254810000000    -0.0374663  
C191     C      0.694090000000     0.495900000000     0.189060000000     0.0660801  
C192     C      0.819750000000     0.500750000000     0.315060000000     0.124703   
C193     C      0.203260000000     0.482250000000     0.362800000000    -0.241053   
C194     C      0.339360000000     0.484460000000     0.120850000000     0.112141   
C195     C      0.391670000000     0.483080000000     0.171860000000     0.114614   
C196     C      0.308780000000     0.481570000000     0.151270000000    -0.111209   
C197     C      0.250840000000     0.456460000000     0.221350000000    -0.0392881  
C198     C      0.220290000000     0.456810000000     0.252030000000    -0.0233885  
C199     C      0.287470000000     0.479400000000     0.226110000000    -0.0061257  
C200     C      0.361880000000     0.480260000000     0.203040000000    -0.113925   
C201     C      0.225500000000     0.480150000000     0.288300000000    -0.0321954  
C202     C      0.150770000000     0.482350000000     0.310550000000    -0.151806   
C203     C      0.262190000000     0.502970000000     0.293050000000    -0.0225355  
C204     C      0.120740000000     0.485410000000     0.341510000000     0.129906   
C205     C      0.172580000000     0.485350000000     0.393100000000     0.440136   
C206     C      0.292700000000     0.502570000000     0.262450000000    -0.0384856  
C207     C      0.319730000000     0.480010000000     0.193090000000     0.0620977  
C208     C      0.192760000000     0.481260000000     0.320890000000     0.119449   
C209     C      0.356070000000     0.488230000000     0.808790000000    -0.24091    
C210     C      0.169150000000     0.491690000000     0.623400000000     0.114625   
C211     C      0.116550000000     0.491720000000     0.674370000000     0.103563   
C212     C      0.199420000000     0.488840000000     0.653820000000    -0.116447   
C213     C      0.254420000000     0.460780000000     0.724240000000    -0.0382143  
C214     C      0.285010000000     0.460740000000     0.754550000000    -0.0214495  
C215     C      0.219720000000     0.486480000000     0.728150000000    -0.00632127 
C216     C      0.146010000000     0.488930000000     0.705540000000    -0.109785   
C217     C      0.281470000000     0.486440000000     0.789280000000    -0.0328781  
C218     C      0.305000000000     0.489510000000     0.862640000000    -0.151892   
C219     C      0.246510000000     0.511780000000     0.793390000000    -0.0213574  
C220     C      0.336550000000     0.492340000000     0.891680000000     0.139401   
C221     C      0.387040000000     0.491070000000     0.838550000000     0.441608   
C222     C      0.215930000000     0.511780000000     0.763130000000    -0.0380438  
C223     C      0.187970000000     0.487740000000     0.695420000000     0.0639098  
C224     C      0.314590000000     0.487730000000     0.820660000000     0.12509    
C225     C      0.699780000000     0.513480000000     0.857960000000    -0.231497   
C226     C      0.836870000000     0.511340000000     0.616850000000     0.100066   
C227     C      0.887870000000     0.510040000000     0.669190000000     0.0965989  
C228     C      0.805530000000     0.512370000000     0.646630000000    -0.102237   
C229     C      0.746440000000     0.535760000000     0.716330000000    -0.0380679  
C230     C      0.715870000000     0.535960000000     0.746970000000    -0.0228105  
C231     C      0.782560000000     0.512040000000     0.721080000000    -0.00298221 
C232     C      0.857340000000     0.511080000000     0.699700000000    -0.0996982  
C233     C      0.720650000000     0.512520000000     0.783210000000    -0.0291904  
C234     C      0.646350000000     0.512610000000     0.806660000000    -0.140866   
C235     C      0.756610000000     0.488590000000     0.787790000000    -0.0223264  
C236     C      0.616820000000     0.511890000000     0.838220000000     0.117852   
C237     C      0.669610000000     0.512860000000     0.888870000000     0.430456   
C238     C      0.787080000000     0.488320000000     0.757180000000    -0.037607   
C239     C      0.815470000000     0.511970000000     0.688740000000     0.057268   
C240     C      0.688500000000     0.513020000000     0.816270000000     0.115658   
C241     C      0.856810000000     0.810270000000     0.996580000000    -0.229066   
C242     C      0.616120000000     0.672690000000     0.999720000000     0.107409   
C243     C      0.668370000000     0.621610000000     0.997300000000     0.101326   
C244     C      0.645870000000     0.703990000000     0.998430000000    -0.100408   
C245     C      0.715720000000     0.762950000000     0.020210000000    -0.0464786  
C246     C      0.746170000000     0.793660000000     0.020110000000    -0.0304668  
C247     C      0.720160000000     0.727110000000     0.996050000000     0.00607697 
C248     C      0.698920000000     0.652170000000     0.995940000000    -0.0999226  
C249     C      0.781970000000     0.789380000000     0.995890000000    -0.0204276  
C250     C      0.805460000000     0.863640000000     0.998170000000    -0.143015   
C251     C      0.786250000000     0.753710000000     0.971450000000    -0.0221996  
C252     C      0.837020000000     0.893160000000     0.999600000000     0.129795   
C253     C      0.887720000000     0.840410000000     0.998130000000     0.434739   
C254     C      0.755790000000     0.723020000000     0.971540000000    -0.0382373  
C255     C      0.687960000000     0.694050000000     0.996700000000     0.0572897  
C256     C      0.815080000000     0.821520000000     0.996740000000     0.116736   
C257     C      0.652730000000     0.309600000000     0.011590000000    -0.243446   
C258     C      0.891550000000     0.173930000000     0.015310000000     0.11613    
C259     C      0.838890000000     0.123040000000     0.016190000000     0.108383   
C260     C      0.862110000000     0.205230000000     0.016820000000    -0.121753   
C261     C      0.792970000000     0.262800000000     0.992070000000    -0.0288415  
C262     C      0.762580000000     0.293270000000     0.991090000000    -0.0141151  
C263     C      0.788390000000     0.228050000000     0.017600000000    -0.0170393  
C264     C      0.808630000000     0.153580000000     0.017670000000    -0.117657   
C265     C      0.727000000000     0.289520000000     0.015550000000    -0.041177   
C266     C      0.704150000000     0.363130000000     0.013070000000    -0.149988   
C267     C      0.722590000000     0.254990000000     0.041390000000    -0.0215947  
C268     C      0.672810000000     0.392490000000     0.010820000000     0.128164   
C269     C      0.622010000000     0.339640000000     0.009240000000     0.445901   
C270     C      0.753010000000     0.224550000000     0.042430000000    -0.0365511  
C271     C      0.820110000000     0.195210000000     0.017670000000     0.0675844  
C272     C      0.694230000000     0.321190000000     0.013540000000     0.124905   
C273     C      0.356180000000     0.702430000000     0.020470000000    -0.239455   
C274     C      0.116630000000     0.836690000000     0.019120000000     0.108834   
C275     C      0.169040000000     0.887890000000     0.018880000000     0.117679   
C276     C      0.146300000000     0.805580000000     0.021010000000    -0.111298   
C277     C      0.216440000000     0.748350000000     0.046180000000    -0.0369279  
C278     C      0.247010000000     0.718000000000     0.045850000000    -0.0208302  
C279     C      0.220290000000     0.783530000000     0.021130000000    -0.014938   
C280     C      0.199430000000     0.857620000000     0.020810000000    -0.117949   
C281     C      0.281920000000     0.722410000000     0.020510000000    -0.0413557  
C282     C      0.304840000000     0.648810000000     0.018900000000    -0.153888   
C283     C      0.285530000000     0.757410000000     0.995240000000    -0.0126729  
C284     C      0.336320000000     0.619580000000     0.016870000000     0.135674   
C285     C      0.387010000000     0.672560000000     0.018490000000     0.437944   
C286     C      0.255020000000     0.787650000000     0.995530000000    -0.0284689  
C287     C      0.188220000000     0.815940000000     0.021360000000     0.0668387  
C288     C      0.314680000000     0.690740000000     0.020250000000     0.126031   
C289     C      0.308820000000     0.358380000000     0.029980000000    -0.239492   
C290     C      0.172100000000     0.117220000000     0.024850000000     0.110795   
C291     C      0.121100000000     0.169520000000     0.026790000000     0.10882    
C292     C      0.203420000000     0.146820000000     0.028090000000    -0.111311   
C293     C      0.262890000000     0.216650000000     0.008060000000    -0.0450928  
C294     C      0.293400000000     0.247290000000     0.008250000000    -0.0310584  
C295     C      0.226670000000     0.221080000000     0.031670000000    -0.00478241 
C296     C      0.151660000000     0.199930000000     0.030060000000    -0.115824   
C297     C      0.288590000000     0.283320000000     0.032030000000    -0.0286242  
C298     C      0.362640000000     0.307480000000     0.029280000000    -0.147836   
C299     C      0.252610000000     0.287560000000     0.056020000000    -0.0243557  
C300     C      0.391860000000     0.339190000000     0.026170000000     0.131402   
C301     C      0.338710000000     0.389470000000     0.026740000000     0.438904   
C302     C      0.222090000000     0.256870000000     0.055860000000    -0.0386604  
C303     C      0.193550000000     0.188900000000     0.030280000000     0.0600401  
C304     C      0.320420000000     0.316750000000     0.030790000000     0.117258   
C305     C      0.860380000000     0.002980000000     0.808380000000    -0.231863   
C306     C      0.672100000000     0.012580000000     0.621020000000     0.112391   
C307     C      0.620380000000     0.013300000000     0.672780000000     0.0995492  
C308     C      0.702980000000     0.011920000000     0.651100000000    -0.113377   
C309     C      0.721170000000     0.033430000000     0.761570000000    -0.036558   
C310     C      0.751490000000     0.031330000000     0.792170000000    -0.0214996  
C311     C      0.724670000000     0.009720000000     0.725410000000    -0.0139119  
C312     C      0.650450000000     0.012730000000     0.703620000000    -0.110067   
C313     C      0.786000000000     0.005470000000     0.787310000000    -0.0379907  
C314     C      0.808520000000     0.003640000000     0.861380000000    -0.144481   
C315     C      0.789420000000     0.981650000000     0.751220000000    -0.013184   
C316     C      0.839730000000     0.003080000000     0.891090000000     0.121831   
C317     C      0.890960000000     0.002490000000     0.838740000000     0.432079   
C318     C      0.759120000000     0.983750000000     0.720620000000    -0.0283389  
C319     C      0.692330000000     0.011670000000     0.692980000000     0.0638603  
C320     C      0.818660000000     0.003860000000     0.819450000000     0.12003    
C321     C      0.360630000000     0.001470000000     0.702010000000    -0.231507   
C322     C      0.120330000000     0.010100000000     0.837470000000     0.100666   
C323     C      0.172100000000     0.009040000000     0.889180000000     0.111439   
C324     C      0.150360000000     0.009580000000     0.806610000000    -0.106632   
C325     C      0.219460000000     0.982210000000     0.749600000000    -0.0293765  
C326     C      0.249980000000     0.980700000000     0.719160000000    -0.0145135  
C327     C      0.224560000000     0.007170000000     0.784720000000    -0.0139755  
C328     C      0.202940000000     0.008550000000     0.859070000000    -0.114577   
C329     C      0.286290000000     0.004110000000     0.723170000000    -0.0386167  
C330     C      0.308710000000     0.002100000000     0.649060000000    -0.145023   
C331     C      0.291310000000     0.029180000000     0.758230000000    -0.0217673  
C332     C      0.339900000000     0.001650000000     0.619320000000     0.119358   
C333     C      0.391170000000     0.001010000000     0.671620000000     0.421489   
C334     C      0.260820000000     0.030670000000     0.788660000000    -0.0363903  
C335     C      0.192240000000     0.008550000000     0.817200000000     0.0632976  
C336     C      0.318900000000     0.002440000000     0.690990000000     0.117826   
C337     C      0.200740000000     0.024660000000     0.150130000000    -0.245758   
C338     C      0.335630000000     0.012880000000     0.390750000000     0.103249   
C339     C      0.387350000000     0.011160000000     0.339030000000     0.11138    
C340     C      0.304820000000     0.015550000000     0.360720000000    -0.115394   
C341     C      0.248470000000     0.044130000000     0.291260000000    -0.0371787  
C342     C      0.218090000000     0.046160000000     0.260640000000    -0.0224154  
C343     C      0.283100000000     0.018360000000     0.286380000000    -0.0158655  
C344     C      0.357340000000     0.013820000000     0.308230000000    -0.117242   
C345     C      0.221750000000     0.022570000000     0.224440000000    -0.0409773  
C346     C      0.147580000000     0.024360000000     0.201820000000    -0.150312   
C347     C      0.256330000000     0.996760000000     0.219650000000    -0.0141992  
C348     C      0.117930000000     0.023150000000     0.170530000000     0.13286    
C349     C      0.170460000000     0.023490000000     0.119510000000     0.443188   
C350     C      0.286600000000     0.994670000000     0.250230000000    -0.0292926  
C351     C      0.315460000000     0.016010000000     0.318850000000     0.0641533  
C352     C      0.189590000000     0.024320000000     0.191800000000     0.123393   
C353     C      0.700210000000     0.027360000000     0.359300000000    -0.240385   
C354     C      0.835520000000     0.016240000000     0.119150000000     0.103417   
C355     C      0.886860000000     0.014150000000     0.171230000000     0.110859   
C356     C      0.804550000000     0.019370000000     0.148930000000    -0.113776   
C357     C      0.745370000000     0.000170000000     0.218980000000    -0.0458463  
C358     C      0.714890000000     0.002250000000     0.249410000000    -0.0300193  
C359     C      0.782190000000     0.022810000000     0.222960000000    -0.00449289 
C360     C      0.856630000000     0.017360000000     0.201830000000    -0.113747   
C361     C      0.720430000000     0.027080000000     0.284570000000    -0.0294193  
C362     C      0.646530000000     0.027570000000     0.308160000000    -0.148287   
C363     C      0.757090000000     0.050060000000     0.288350000000    -0.0223738  
C364     C      0.617210000000     0.025590000000     0.339690000000     0.132614   
C365     C      0.670200000000     0.025390000000     0.390210000000     0.445544   
C366     C      0.787620000000     0.047920000000     0.257920000000    -0.0385032  
C367     C      0.814870000000     0.019950000000     0.190870000000     0.0607972  
C368     C      0.688650000000     0.027830000000     0.317710000000     0.120099   
C369     C      0.019790000000     0.150960000000     0.806700000000    -0.238618   
C370     C      0.013290000000     0.389630000000     0.671950000000     0.101976   
C371     C      0.013330000000     0.337710000000     0.620300000000     0.113289   
C372     C      0.015850000000     0.359840000000     0.702730000000    -0.113131   
C373     C      0.993320000000     0.289760000000     0.759710000000    -0.0297181  
C374     C      0.994250000000     0.259550000000     0.790250000000    -0.0129364  
C375     C      0.018400000000     0.286140000000     0.724550000000    -0.0148193  
C376     C      0.015920000000     0.307070000000     0.650370000000    -0.116023   
C377     C      0.020280000000     0.225140000000     0.786210000000    -0.0413559  
C378     C      0.019180000000     0.202720000000     0.859900000000    -0.155283   
C379     C      0.045560000000     0.221600000000     0.751170000000    -0.0202198  
C380     C      0.017180000000     0.171570000000     0.889400000000     0.135498   
C381     C      0.017770000000     0.120430000000     0.836890000000     0.437149   
C382     C      0.044610000000     0.251850000000     0.720570000000    -0.0368495  
C383     C      0.016940000000     0.318060000000     0.692100000000     0.0654399  
C384     C      0.020140000000     0.192540000000     0.818040000000     0.125869   
C385     C      0.995500000000     0.649060000000     0.703130000000    -0.225246   
C386     C      0.998800000000     0.890970000000     0.839760000000     0.10742    
C387     C      0.996180000000     0.839610000000     0.891640000000     0.10093    
C388     C      0.997610000000     0.860690000000     0.808940000000    -0.0998688  
C389     C      0.973280000000     0.791200000000     0.750160000000    -0.0383988  
C390     C      0.973350000000     0.760550000000     0.719610000000    -0.0231394  
C391     C      0.995690000000     0.785960000000     0.787020000000     0.00617975 
C392     C      0.995050000000     0.808540000000     0.861580000000    -0.0978257  
C393     C      0.995850000000     0.723770000000     0.725010000000    -0.0190956  
C394     C      0.997090000000     0.701030000000     0.650430000000    -0.135257   
C395     C      0.018280000000     0.718580000000     0.761860000000    -0.0304166  
C396     C      0.998090000000     0.669830000000     0.620520000000     0.118958   
C397     C      0.996520000000     0.618500000000     0.672560000000     0.42724    
C398     C      0.018180000000     0.749180000000     0.792400000000    -0.0458258  
C399     C      0.995970000000     0.818770000000     0.819540000000     0.0569568  
C400     C      0.996060000000     0.690950000000     0.692460000000     0.112662   
C401     C      0.008450000000     0.807520000000     0.152080000000    -0.24229    
C402     C      0.011020000000     0.674050000000     0.392030000000     0.107437   
C403     C      0.010100000000     0.622440000000     0.340100000000     0.11399    
C404     C      0.011280000000     0.704950000000     0.362130000000    -0.112726   
C405     C      0.034760000000     0.761910000000     0.291630000000    -0.0370217  
C406     C      0.034020000000     0.792180000000     0.261030000000    -0.0209417  
C407     C      0.009840000000     0.726590000000     0.288120000000    -0.0157473  
C408     C      0.010370000000     0.652530000000     0.309440000000    -0.121117   
C409     C      0.008410000000     0.787600000000     0.226370000000    -0.0416895  
C410     C      0.007090000000     0.861170000000     0.203350000000    -0.154952   
C411     C      0.983310000000     0.752430000000     0.223010000000    -0.0136676  
C412     C      0.006250000000     0.890440000000     0.171890000000     0.134638   
C413     C      0.007710000000     0.837460000000     0.121250000000     0.440116   
C414     C      0.983990000000     0.722240000000     0.253600000000    -0.0292942  
C415     C      0.010680000000     0.694310000000     0.320320000000     0.0662593  
C416     C      0.008030000000     0.819210000000     0.193550000000     0.12597    
C417     C      0.027750000000     0.151660000000     0.201320000000    -0.23925    
C418     C      0.027140000000     0.392640000000     0.339010000000     0.109369   
C419     C      0.024150000000     0.340100000000     0.389660000000     0.110483   
C420     C      0.030420000000     0.363010000000     0.307700000000    -0.116922   
C421     C      0.009760000000     0.294280000000     0.247020000000    -0.0467224  
C422     C      0.009870000000     0.263710000000     0.216450000000    -0.0317616  
C423     C      0.031530000000     0.288700000000     0.284210000000    -0.00511309 
C424     C      0.027420000000     0.309680000000     0.359120000000    -0.11103    
C425     C      0.031740000000     0.226590000000     0.222110000000    -0.0299887  
C426     C      0.030820000000     0.202830000000     0.147890000000    -0.151216   
C427     C      0.053930000000     0.221190000000     0.259080000000    -0.0240007  
C428     C      0.027610000000     0.171400000000     0.118400000000     0.12763    
C429     C      0.024530000000     0.120840000000     0.171130000000     0.436827   
C430     C      0.053820000000     0.251790000000     0.289680000000    -0.0393814  
C431     C      0.030130000000     0.320820000000     0.317390000000     0.0595111  
C432     C      0.030440000000     0.193320000000     0.190060000000     0.116106   
F1       F      0.517780000000     0.080360000000     0.325170000000    -0.470823   
F2       F      0.495570000000     0.580930000000     0.186050000000    -0.468923   
F3       F      0.506930000000     0.685740000000     0.930990000000    -0.439863   
F4       F      0.502670000000     0.325870000000     0.928140000000    -0.448477   
F5       F      0.822720000000     0.430930000000     0.487710000000    -0.432717   
F6       F      0.685720000000     0.929590000000     0.496580000000    -0.447369   
F7       F      0.078160000000     0.325690000000     0.484680000000    -0.468162   
F8       F      0.080990000000     0.686300000000     0.495830000000    -0.463038   
F9       F      0.823580000000     0.502880000000     0.427030000000    -0.433436   
F10      F      0.185350000000     0.486760000000     0.433000000000    -0.468238   
F11      F      0.426720000000     0.491680000000     0.824910000000    -0.462372   
F12      F      0.683100000000     0.513530000000     0.928580000000    -0.459389   
F13      F      0.927460000000     0.826910000000     0.997950000000    -0.43851    
F14      F      0.582290000000     0.326230000000     0.007210000000    -0.452887   
F15      F      0.426750000000     0.686070000000     0.018990000000    -0.445722   
F16      F      0.324930000000     0.429050000000     0.025320000000    -0.468818   
F17      F      0.930820000000     0.001730000000     0.825640000000    -0.441114   
F18      F      0.431040000000     0.999760000000     0.684670000000    -0.451316   
F19      F      0.183690000000     0.023270000000     0.079730000000    -0.469359   
F20      F      0.683790000000     0.024160000000     0.429860000000    -0.44991    
F21      F      0.017320000000     0.080580000000     0.823750000000    -0.445177   
F22      F      0.995590000000     0.578600000000     0.685470000000    -0.456269   
F23      F      0.008380000000     0.823940000000     0.081550000000    -0.447459   
F24      F      0.021350000000     0.081230000000     0.184550000000    -0.471223   
H1       H      0.974460000000     0.976790000000     0.036060000000    -1.24399    
H2       H      0.029500000000     0.030000000000     0.029850000000    -1.05614    
H3       H      0.968420000000     0.075980000000     0.967950000000    -0.500905   
H4       H      0.074080000000     0.966890000000     0.968790000000    -0.51295    
H5       H      0.975720000000     0.534780000000     0.474320000000    -1.24689    
H6       H      0.029290000000     0.480410000000     0.480870000000    -1.06729    
H7       H      0.965820000000     0.434900000000     0.541030000000    -0.504165   
H8       H      0.073910000000     0.541720000000     0.543720000000    -0.542913   
H9       H      0.475170000000     0.976290000000     0.474550000000    -1.25081    
H10      H      0.529050000000     0.030510000000     0.480370000000    -1.09096    
H11      H      0.574840000000     0.968800000000     0.541920000000    -0.521418   
H12      H      0.466940000000     0.075820000000     0.541790000000    -0.548765   
H13      H      0.533300000000     0.475250000000     0.975520000000    -1.26194    
H14      H      0.479660000000     0.480770000000     0.030150000000    -1.10555    
H15      H      0.433260000000     0.542100000000     0.968640000000    -0.517464   
H16      H      0.541720000000     0.542560000000     0.074890000000    -0.56037    
H17      H      0.492790000000     0.329660000000     0.087420000000     0.0312182  
H18      H      0.517310000000     0.181240000000     0.422220000000     0.00942049 
H19      H      0.543910000000     0.249200000000     0.189610000000     0.0421521  
H20      H      0.465810000000     0.262520000000     0.320540000000     0.0343839  
H21      H      0.514710000000     0.234660000000     0.370240000000     0.065722   
H22      H      0.457920000000     0.315110000000     0.267320000000     0.0388944  
H23      H      0.514090000000     0.141430000000     0.275490000000     0.116896   
H24      H      0.495420000000     0.276450000000     0.139850000000     0.0630063  
H25      H      0.494560000000     0.370500000000     0.234020000000     0.0592176  
H26      H      0.551740000000     0.196610000000     0.242790000000     0.037845   
H27      H      0.491130000000     0.422920000000     0.181010000000     0.0203124  
H28      H      0.508730000000     0.827840000000     0.422280000000     0.0174823  
H29      H      0.496180000000     0.682200000000     0.089140000000     0.0427762  
H30      H      0.549480000000     0.747050000000     0.314140000000     0.0401612  
H31      H      0.452790000000     0.764350000000     0.196580000000     0.0386169  
H32      H      0.497020000000     0.735390000000     0.141240000000     0.0733133  
H33      H      0.456080000000     0.817420000000     0.249890000000     0.0400956  
H34      H      0.496180000000     0.641960000000     0.235840000000     0.119203   
H35      H      0.506510000000     0.775120000000     0.369550000000     0.058392   
H36      H      0.503890000000     0.869890000000     0.276050000000     0.0610183  
H37      H      0.546040000000     0.693970000000     0.260970000000     0.0392204  
H38      H      0.505290000000     0.921960000000     0.329370000000     0.0166138  
H39      H      0.502770000000     0.923680000000     0.680960000000     0.0441323  
H40      H      0.505310000000     0.588280000000     0.830500000000     0.0288682  
H41      H      0.460400000000     0.818470000000     0.765460000000     0.0445998  
H42      H      0.545140000000     0.692770000000     0.743990000000     0.0362282  
H43      H      0.504210000000     0.640090000000     0.776920000000     0.0681641  
H44      H      0.543610000000     0.745920000000     0.690750000000     0.0398105  
H45      H      0.506240000000     0.735240000000     0.869710000000     0.121182   
H46      H      0.503050000000     0.870930000000     0.733870000000     0.0629025  
H47      H      0.499220000000     0.777260000000     0.639430000000     0.0561971  
H48      H      0.461810000000     0.765320000000     0.818620000000     0.0435036  
H49      H      0.499650000000     0.830630000000     0.587190000000     0.0207324  
H50      H      0.513360000000     0.090410000000     0.681890000000     0.0320567  
H51      H      0.500570000000     0.423560000000     0.827630000000     0.0351039  
H52      H      0.558020000000     0.198860000000     0.761680000000     0.0411821  
H53      H      0.461350000000     0.316470000000     0.744400000000     0.0376505  
H54      H      0.503720000000     0.371950000000     0.774110000000     0.0716383  
H55      H      0.464800000000     0.263280000000     0.691290000000     0.0398     
H56      H      0.505350000000     0.276600000000     0.866780000000     0.124458   
H57      H      0.513410000000     0.143610000000     0.734240000000     0.0624135  
H58      H      0.513050000000     0.236490000000     0.638860000000     0.0581853  
H59      H      0.554640000000     0.252090000000     0.814770000000     0.0419682  
H60      H      0.512350000000     0.182740000000     0.587160000000     0.0109584  
H61      H      0.585070000000     0.180640000000     0.480690000000     0.0151324  
H62      H      0.919000000000     0.329300000000     0.493320000000     0.0142148  
H63      H      0.687770000000     0.264860000000     0.521660000000     0.039877   
H64      H      0.816380000000     0.246570000000     0.440560000000     0.0370608  
H65      H      0.866790000000     0.276290000000     0.488090000000     0.0697067  
H66      H      0.763080000000     0.193300000000     0.438060000000     0.0419743  
H67      H      0.772870000000     0.370240000000     0.481700000000     0.122601   
H68      H      0.637040000000     0.234030000000     0.475740000000     0.0582892  
H69      H      0.732140000000     0.141070000000     0.482470000000     0.0656895  
H70      H      0.740880000000     0.317900000000     0.524190000000     0.0402943  
H71      H      0.679530000000     0.088290000000     0.486800000000     0.0514015  
H72      H      0.922540000000     0.680900000000     0.508770000000     0.0271058  
H73      H      0.588140000000     0.829020000000     0.495850000000     0.0128435  
H74      H      0.818700000000     0.761600000000     0.459510000000     0.0425344  
H75      H      0.691350000000     0.746520000000     0.543230000000     0.0354007  
H76      H      0.639980000000     0.775410000000     0.496160000000     0.0664311  
H77      H      0.744730000000     0.693570000000     0.547150000000     0.0408761  
H78      H      0.735190000000     0.868280000000     0.497890000000     0.123411   
H79      H      0.869910000000     0.733910000000     0.507500000000     0.0603382  
H80      H      0.775980000000     0.639560000000     0.505220000000     0.0624445  
H81      H      0.765330000000     0.814500000000     0.455540000000     0.041623   
H82      H      0.829110000000     0.587260000000     0.507210000000     0.0404877  
H83      H      0.326690000000     0.088790000000     0.491680000000     0.0169269  
H84      H      0.178770000000     0.423150000000     0.487780000000     0.0430552  
H85      H      0.246620000000     0.194190000000     0.439970000000     0.0386308  
H86      H      0.261160000000     0.318710000000     0.527850000000     0.0353141  
H87      H      0.232300000000     0.371620000000     0.483130000000     0.0717012  
H88      H      0.314030000000     0.265380000000     0.530350000000     0.0388535  
H89      H      0.139510000000     0.276350000000     0.480890000000     0.116713   
H90      H      0.273820000000     0.141500000000     0.486660000000     0.0574101  
H91      H      0.368430000000     0.235200000000     0.488770000000     0.0576113  
H92      H      0.193580000000     0.247700000000     0.437450000000     0.0368369  
H93      H      0.420410000000     0.182050000000     0.494530000000     0.0105774  
H94      H      0.329380000000     0.922800000000     0.508770000000     0.0209557  
H95      H      0.181200000000     0.588650000000     0.503400000000     0.0189987  
H96      H      0.245740000000     0.816860000000     0.550380000000     0.0406044  
H97      H      0.267580000000     0.693430000000     0.462440000000     0.0364049  
H98      H      0.234890000000     0.640370000000     0.505410000000     0.0697463  
H99      H      0.320810000000     0.746590000000     0.465450000000     0.0393402  
H100     H      0.142440000000     0.735680000000     0.498090000000     0.118076   
H101     H      0.276710000000     0.869940000000     0.508010000000     0.0576576  
H102     H      0.371590000000     0.776550000000     0.511510000000     0.0567633  
H103     H      0.192470000000     0.763820000000     0.547160000000     0.0392256  
H104     H      0.423630000000     0.830030000000     0.511380000000     0.019557   
H105     H      0.590100000000     0.497260000000     0.180360000000     0.0229118  
H106     H      0.923150000000     0.502460000000     0.328320000000     0.00521615 
H107     H      0.696170000000     0.544200000000     0.257740000000     0.0421686  
H108     H      0.819170000000     0.453720000000     0.245090000000     0.0352417  
H109     H      0.872270000000     0.501050000000     0.273800000000     0.0670252  
H110     H      0.765790000000     0.451410000000     0.191870000000     0.03958    
H111     H      0.775410000000     0.500460000000     0.364930000000     0.12424    
H112     H      0.643340000000     0.496220000000     0.232590000000     0.0629047  
H113     H      0.736170000000     0.494940000000     0.137120000000     0.0596886  
H114     H      0.749350000000     0.546450000000     0.310790000000     0.0396885  
H115     H      0.682260000000     0.495220000000     0.085460000000     0.0228252  
H116     H      0.423790000000     0.483490000000     0.181260000000     0.0286488  
H117     H      0.088780000000     0.486650000000     0.331640000000     0.00780477 
H118     H      0.320070000000     0.521250000000     0.266940000000     0.0423253  
H119     H      0.192770000000     0.438390000000     0.247480000000     0.0335061  
H120     H      0.141000000000     0.481940000000     0.278600000000     0.0644651  
H121     H      0.245920000000     0.437820000000     0.194060000000     0.0397391  
H122     H      0.235260000000     0.480600000000     0.372370000000     0.116458   
H123     H      0.371950000000     0.478300000000     0.234850000000     0.0608728  
H124     H      0.276660000000     0.481790000000     0.141980000000     0.0617918  
H125     H      0.267050000000     0.521960000000     0.320110000000     0.0386656  
H126     H      0.329170000000     0.486430000000     0.089070000000     0.046046   
H127     H      0.084400000000     0.492610000000     0.683650000000     0.0317693  
H128     H      0.327440000000     0.493770000000     0.923830000000     0.021821   
H129     H      0.189810000000     0.532370000000     0.766640000000     0.042473   
H130     H      0.311340000000     0.440450000000     0.750880000000     0.0386105  
H131     H      0.273240000000     0.488600000000     0.873110000000     0.0722644  
H132     H      0.257830000000     0.440550000000     0.697850000000     0.0401321  
H133     H      0.364660000000     0.487320000000     0.776490000000     0.119091   
H134     H      0.135930000000     0.487570000000     0.737380000000     0.0610913  
H135     H      0.231620000000     0.488400000000     0.644780000000     0.0600635  
H136     H      0.243260000000     0.532390000000     0.819500000000     0.0372155  
H137     H      0.179420000000     0.492850000000     0.591590000000     0.0174256  
H138     H      0.919730000000     0.509330000000     0.679420000000     0.0444955  
H139     H      0.584670000000     0.511120000000     0.828940000000     0.0211793  
H140     H      0.814010000000     0.469010000000     0.761630000000     0.0423039  
H141     H      0.688830000000     0.555140000000     0.742590000000     0.0362409  
H142     H      0.636090000000     0.511960000000     0.774870000000     0.0665458  
H143     H      0.742070000000     0.554820000000     0.689230000000     0.0410696  
H144     H      0.732000000000     0.514650000000     0.866850000000     0.11792    
H145     H      0.866680000000     0.511530000000     0.731780000000     0.0624279  
H146     H      0.773640000000     0.512660000000     0.636570000000     0.0610117  
H147     H      0.761030000000     0.469520000000     0.814880000000     0.0401688  
H148     H      0.827540000000     0.511350000000     0.584740000000     0.0386096  
H149     H      0.678510000000     0.589730000000     0.996930000000     0.0450497  
H150     H      0.827740000000     0.925290000000     0.000670000000     0.00871316 
H151     H      0.759990000000     0.696250000000     0.951980000000     0.0449995  
H152     H      0.742060000000     0.820350000000     0.039790000000     0.0360903  
H153     H      0.773640000000     0.873930000000     0.997800000000     0.0695783  
H154     H      0.689050000000     0.766950000000     0.039970000000     0.0416024  
H155     H      0.865740000000     0.778050000000     0.996000000000     0.122576   
H156     H      0.731040000000     0.642890000000     0.995060000000     0.0631603  
H157     H      0.635780000000     0.735850000000     0.998390000000     0.0666651  
H158     H      0.813030000000     0.749630000000     0.951870000000     0.0420512  
H159     H      0.584040000000     0.682110000000     0.001040000000     0.0402349  
H160     H      0.828590000000     0.091200000000     0.015860000000     0.016199   
H161     H      0.682130000000     0.424630000000     0.010780000000     0.0254757  
H162     H      0.748970000000     0.198420000000     0.062870000000     0.0390565  
H163     H      0.766500000000     0.319290000000     0.970470000000     0.0381228  
H164     H      0.735960000000     0.373320000000     0.014910000000     0.0683859  
H165     H      0.819610000000     0.266020000000     0.972120000000     0.0406953  
H166     H      0.643970000000     0.277320000000     0.011290000000     0.121542   
H167     H      0.776420000000     0.144550000000     0.017900000000     0.0580602  
H168     H      0.872260000000     0.237080000000     0.017440000000     0.0574696  
H169     H      0.695720000000     0.251660000000     0.061020000000     0.0382457  
H170     H      0.923720000000     0.183160000000     0.014510000000     0.0109552  
H171     H      0.179200000000     0.919760000000     0.018200000000     0.0256688  
H172     H      0.327130000000     0.587440000000     0.015340000000     0.0118183  
H173     H      0.258380000000     0.814030000000     0.975280000000     0.0431781  
H174     H      0.243710000000     0.691460000000     0.065900000000     0.0355963  
H175     H      0.272980000000     0.638600000000     0.018450000000     0.0684151  
H176     H      0.190140000000     0.744620000000     0.066490000000     0.0417713  
H177     H      0.364880000000     0.734680000000     0.022310000000     0.121577   
H178     H      0.231570000000     0.866870000000     0.021820000000     0.0623885  
H179     H      0.136430000000     0.773640000000     0.021150000000     0.0637389  
H180     H      0.311760000000     0.761190000000     0.974830000000     0.0432989  
H181     H      0.084510000000     0.827320000000     0.018360000000     0.0448033  
H182     H      0.089240000000     0.179760000000     0.026220000000     0.0141974  
H183     H      0.424060000000     0.330140000000     0.024910000000     0.0259974  
H184     H      0.194990000000     0.261120000000     0.074970000000     0.0382951  
H185     H      0.320320000000     0.243190000000     0.988850000000     0.0470584  
H186     H      0.373230000000     0.275800000000     0.030550000000     0.0696861  
H187     H      0.267290000000     0.189910000000     0.988500000000     0.0488746  
H188     H      0.276530000000     0.367060000000     0.030690000000     0.115      
H189     H      0.142390000000     0.232020000000     0.031320000000     0.0552026  
H190     H      0.235260000000     0.136640000000     0.028890000000     0.0618353  
H191     H      0.248080000000     0.314540000000     0.075220000000     0.0364421  
H192     H      0.181480000000     0.085190000000     0.022710000000     0.0471673  
H193     H      0.588380000000     0.013680000000     0.682570000000     0.0253138  
H194     H      0.830140000000     0.003070000000     0.923130000000     0.0161393  
H195     H      0.762370000000     0.964540000000     0.693470000000     0.0445995  
H196     H      0.748260000000     0.050550000000     0.819320000000     0.036664   
H197     H      0.776580000000     0.003650000000     0.871320000000     0.0660297  
H198     H      0.695280000000     0.054140000000     0.765960000000     0.0401321  
H199     H      0.869530000000     0.003460000000     0.776230000000     0.121301   
H200     H      0.640820000000     0.012210000000     0.735610000000     0.0590286  
H201     H      0.735020000000     0.011800000000     0.641510000000     0.0630814  
H202     H      0.815310000000     0.960950000000     0.746800000000     0.0418433  
H203     H      0.681820000000     0.012510000000     0.589010000000     0.0304021  
H204     H      0.181840000000     0.008620000000     0.921170000000     0.018935   
H205     H      0.330290000000     0.001940000000     0.587280000000     0.0140273  
H206     H      0.265390000000     0.050700000000     0.815020000000     0.0410722  
H207     H      0.245420000000     0.960650000000     0.692810000000     0.0364633  
H208     H      0.276790000000     0.003080000000     0.639130000000     0.0638707  
H209     H      0.192150000000     0.963260000000     0.745940000000     0.0419616  
H210     H      0.369780000000     0.000760000000     0.734150000000     0.11628    
H211     H      0.234970000000     0.007390000000     0.868630000000     0.0600208  
H212     H      0.140730000000     0.010290000000     0.774610000000     0.0623149  
H213     H      0.318610000000     0.048140000000     0.761910000000     0.039641   
H214     H      0.088320000000     0.010830000000     0.827710000000     0.0472412  
H215     H      0.419330000000     0.009670000000     0.329260000000     0.0218697  
H216     H      0.085840000000     0.022320000000     0.179990000000     0.0369597  
H217     H      0.312460000000     0.973930000000     0.245810000000     0.04044    
H218     H      0.192050000000     0.066670000000     0.265050000000     0.0353565  
H219     H      0.137560000000     0.024000000000     0.233710000000     0.0703787  
H220     H      0.245100000000     0.063200000000     0.318500000000     0.0382245  
H221     H      0.232940000000     0.025600000000     0.141090000000     0.116648   
H222     H      0.367030000000     0.014640000000     0.276260000000     0.0598226  
H223     H      0.272810000000     0.016640000000     0.370340000000     0.0562289  
H224     H      0.259680000000     0.977570000000     0.192490000000     0.0396615  
H225     H      0.325850000000     0.012560000000     0.422740000000     0.0168405  
H226     H      0.918740000000     0.012080000000     0.181210000000     0.0237018  
H227     H      0.585040000000     0.024950000000     0.330510000000     0.0381711  
H228     H      0.815350000000     0.066240000000     0.261600000000     0.0421079  
H229     H      0.687380000000     0.983580000000     0.245840000000     0.0442874  
H230     H      0.636120000000     0.028710000000     0.276420000000     0.0701976  
H231     H      0.740460000000     0.980070000000     0.192730000000     0.0473544  
H232     H      0.732490000000     0.027220000000     0.368060000000     0.121177   
H233     H      0.865960000000     0.017180000000     0.233920000000     0.0615431  
H234     H      0.772690000000     0.021820000000     0.139040000000     0.0555064  
H235     H      0.762100000000     0.069950000000     0.314730000000     0.0387158  
H236     H      0.825950000000     0.016120000000     0.087100000000     0.0169737  
H237     H      0.012300000000     0.327900000000     0.588340000000     0.0242654  
H238     H      0.016270000000     0.181080000000     0.921460000000     0.00709386 
H239     H      0.064660000000     0.248620000000     0.694020000000     0.0412895  
H240     H      0.973920000000     0.262700000000     0.816600000000     0.0368683  
H241     H      0.020000000000     0.234620000000     0.869890000000     0.0664436  
H242     H      0.972360000000     0.315580000000     0.763250000000     0.0416238  
H243     H      0.020160000000     0.141970000000     0.774500000000     0.122082   
H244     H      0.016330000000     0.274980000000     0.640990000000     0.0618227  
H245     H      0.017220000000     0.369560000000     0.734690000000     0.0582739  
H246     H      0.066280000000     0.195610000000     0.747550000000     0.0388232  
H247     H      0.012550000000     0.421630000000     0.681690000000     0.0247817  
H248     H      0.995430000000     0.830000000000     0.923660000000     0.0528764  
H249     H      0.999270000000     0.679530000000     0.588530000000     0.0320279  
H250     H      0.036400000000     0.744280000000     0.819980000000     0.0425695  
H251     H      0.955200000000     0.765470000000     0.691980000000     0.03858    
H252     H      0.997950000000     0.732940000000     0.640530000000     0.0699476  
H253     H      0.955110000000     0.818800000000     0.745100000000     0.0451652  
H254     H      0.993830000000     0.639720000000     0.735180000000     0.118572   
H255     H      0.993110000000     0.776650000000     0.871390000000     0.0659292  
H256     H      0.998820000000     0.870200000000     0.776930000000     0.0660346  
H257     H      0.036600000000     0.691070000000     0.766910000000     0.040079   
H258     H      0.000400000000     0.922880000000     0.829820000000     0.0416065  
H259     H      0.009740000000     0.590470000000     0.330220000000     0.00762833 
H260     H      0.005290000000     0.922590000000     0.181090000000     0.010792   
H261     H      0.963890000000     0.695700000000     0.250450000000     0.0404237  
H262     H      0.054040000000     0.818780000000     0.264120000000     0.036098   
H263     H      0.006370000000     0.871390000000     0.235170000000     0.0692969  
H264     H      0.055350000000     0.765820000000     0.317680000000     0.0418341  
H265     H      0.009790000000     0.775250000000     0.143410000000     0.120205   
H266     H      0.010580000000     0.643050000000     0.277390000000     0.0568721  
H267     H      0.011150000000     0.736960000000     0.371790000000     0.0626473  
H268     H      0.962770000000     0.748470000000     0.196920000000     0.0410065  
H269     H      0.011160000000     0.683700000000     0.424060000000     0.0397285  
H270     H      0.021330000000     0.329760000000     0.421340000000     0.0461537  
H271     H      0.027790000000     0.180680000000     0.086270000000     0.00926468 
H272     H      0.071500000000     0.246600000000     0.317560000000     0.0405056  
H273     H      0.991860000000     0.268780000000     0.188760000000     0.0415892  
H274     H      0.033640000000     0.234480000000     0.137540000000     0.0623025  
H275     H      0.991670000000     0.321920000000     0.241880000000     0.0458404  
H276     H      0.027000000000     0.142760000000     0.233520000000     0.114872   
H277     H      0.026670000000     0.277530000000     0.368240000000     0.0616047  
H278     H      0.033240000000     0.373260000000     0.276030000000     0.0540539  
H279     H      0.071690000000     0.193370000000     0.264330000000     0.0368472  
H280     H      0.027260000000     0.424800000000     0.329790000000     0.0121703  
N1       N      0.516700000000     0.130490000000     0.379420000000    -0.31516    
N2       N      0.492530000000     0.380430000000     0.130100000000    -0.265862   
N3       N      0.496650000000     0.631430000000     0.132030000000    -0.296834   
N4       N      0.506880000000     0.878830000000     0.379830000000    -0.257708   
N5       N      0.505550000000     0.631240000000     0.881110000000    -0.273489   
N6       N      0.501490000000     0.881330000000     0.629930000000    -0.225367   
N7       N      0.501980000000     0.380320000000     0.878080000000    -0.303528   
N8       N      0.512380000000     0.132560000000     0.630630000000    -0.249298   
N9       N      0.876480000000     0.380290000000     0.491330000000    -0.300775   
N10      N      0.628290000000     0.130430000000     0.484830000000    -0.263581   
N11      N      0.631280000000     0.879530000000     0.496770000000    -0.302258   
N12      N      0.879940000000     0.630010000000     0.507710000000    -0.234062   
N13      N      0.128200000000     0.380070000000     0.487160000000    -0.311202   
N14      N      0.377530000000     0.131370000000     0.493810000000    -0.256223   
N15      N      0.130810000000     0.631850000000     0.500400000000    -0.302254   
N16      N      0.380560000000     0.880540000000     0.509710000000    -0.236431   
N17      N      0.878990000000     0.502700000000     0.377970000000    -0.304653   
N18      N      0.632170000000     0.496840000000     0.129010000000    -0.257396   
N19      N      0.131340000000     0.487540000000     0.382580000000    -0.313555   
N20      N      0.380560000000     0.485880000000     0.131020000000    -0.259839   
N21      N      0.377330000000     0.493500000000     0.879900000000    -0.305015   
N22      N      0.128030000000     0.493450000000     0.633610000000    -0.247589   
N23      N      0.628120000000     0.511600000000     0.879170000000    -0.281759   
N24      N      0.877810000000     0.509850000000     0.627980000000    -0.22459    
N25      N      0.878000000000     0.881870000000     0.999870000000    -0.27769    
N26      N      0.627200000000     0.631710000000     0.999440000000    -0.220108   
N27      N      0.631970000000     0.381020000000     0.008930000000    -0.303629   
N28      N      0.880040000000     0.133140000000     0.014600000000    -0.257111   
N29      N      0.377150000000     0.631220000000     0.016150000000    -0.29686    
N30      N      0.127960000000     0.877510000000     0.017480000000    -0.253531   
N31      N      0.380190000000     0.379990000000     0.024240000000    -0.312341   
N32      N      0.131180000000     0.128420000000     0.023640000000    -0.258583   
N33      N      0.880760000000     0.002980000000     0.880080000000    -0.27802    
N34      N      0.631070000000     0.012780000000     0.631760000000    -0.244235   
N35      N      0.380930000000     0.001670000000     0.630300000000    -0.278315   
N36      N      0.131060000000     0.009470000000     0.878490000000    -0.242949   
N37      N      0.129100000000     0.021810000000     0.129600000000    -0.313814   
N38      N      0.376640000000     0.010690000000     0.380040000000    -0.254003   
N39      N      0.628750000000     0.023670000000     0.380490000000    -0.313144   
N40      N      0.876430000000     0.013600000000     0.130150000000    -0.252491   
N41      N      0.015980000000     0.130680000000     0.878150000000    -0.29671    
N42      N      0.011790000000     0.378670000000     0.631040000000    -0.247315   
N43      N      0.998200000000     0.628720000000     0.631250000000    -0.269831   
N44      N      0.998370000000     0.880600000000     0.880900000000    -0.218608   
N45      N      0.006460000000     0.878860000000     0.131070000000    -0.304049   
N46      N      0.010120000000     0.633100000000     0.381100000000    -0.255266   
N47      N      0.023800000000     0.130620000000     0.129680000000    -0.311553   
N48      N      0.023420000000     0.381340000000     0.379730000000    -0.261272   
O1       O      0.016580000000     0.112490000000     0.060180000000    -1.037      
O2       O      0.005580000000     0.896630000000     0.061310000000    -0.746674   
O3       O      0.946330000000     0.008460000000     0.112270000000    -0.991094   
O4       O      0.059660000000     0.014600000000     0.111480000000    -1.05464    
O5       O      0.111060000000     0.014890000000     0.060290000000    -1.02091    
O6       O      0.894720000000     0.010620000000     0.060590000000    -0.792298   
O7       O      0.004320000000     0.948560000000     0.112510000000    -1.01083    
O8       O      0.014150000000     0.061310000000     0.111470000000    -1.02339    
O9       O      0.048380000000     0.965610000000     0.049860000000    -2.0708     
O10      O      0.965270000000     0.051070000000     0.049180000000    -2.07056    
O11      O      0.958870000000     0.961770000000     0.051890000000    -0.859328   
O12      O      0.013430000000     0.014360000000     0.013700000000    -2.56828    
O13      O      0.000440000000     0.899040000000     0.950920000000    -0.685377   
O14      O      0.011290000000     0.112840000000     0.947900000000    -0.932493   
O15      O      0.896640000000     0.951930000000     0.003380000000    -0.732411   
O16      O      0.111160000000     0.947240000000     0.011490000000    -0.942907   
O17      O      0.112180000000     0.059360000000     0.015250000000    -1.01875    
O18      O      0.897000000000     0.063270000000     0.011140000000    -0.774254   
O19      O      0.950630000000     0.005530000000     0.898430000000    -0.541607   
O20      O      0.061360000000     0.008070000000     0.896460000000    -0.613776   
O21      O      0.898490000000     0.004410000000     0.950160000000    -0.718154   
O22      O      0.112640000000     0.007680000000     0.948340000000    -0.921656   
O23      O      0.948190000000     0.899420000000     0.003570000000    -0.686425   
O24      O      0.949350000000     0.114110000000     0.009700000000    -0.945982   
O25      O      0.061490000000     0.111530000000     0.015690000000    -1.03059    
O26      O      0.058710000000     0.896530000000     0.012710000000    -0.755526   
O27      O      0.003380000000     0.950580000000     0.898550000000    -0.563535   
O28      O      0.010440000000     0.061280000000     0.896450000000    -0.587254   
O29      O      0.049640000000     0.049030000000     0.965960000000    -1.98034    
O30      O      0.966520000000     0.968560000000     0.966980000000    -1.59457    
O31      O      0.960200000000     0.049310000000     0.960150000000    -1.23735    
O32      O      0.047250000000     0.959480000000     0.960760000000    -1.24717    
O33      O      0.014610000000     0.398480000000     0.449240000000    -1.01613    
O34      O      0.008700000000     0.614820000000     0.450580000000    -0.774901   
O35      O      0.948580000000     0.505040000000     0.397260000000    -1.0118     
O36      O      0.061660000000     0.496100000000     0.399770000000    -1.06243    
O37      O      0.112150000000     0.494940000000     0.451810000000    -1.02476    
O38      O      0.896050000000     0.503280000000     0.447870000000    -0.759167   
O39      O      0.007320000000     0.563330000000     0.398750000000    -1.01621    
O40      O      0.015440000000     0.450480000000     0.398570000000    -1.05979    
O41      O      0.050040000000     0.544960000000     0.461950000000    -2.09591    
O42      O      0.965060000000     0.460950000000     0.459840000000    -2.08764    
O43      O      0.960740000000     0.550280000000     0.458350000000    -0.867889   
O44      O      0.013230000000     0.496230000000     0.496850000000    -2.58031    
O45      O      0.001260000000     0.611030000000     0.560970000000    -0.699101   
O46      O      0.007940000000     0.396930000000     0.561370000000    -0.921754   
O47      O      0.897680000000     0.560170000000     0.505420000000    -0.739775   
O48      O      0.112470000000     0.561890000000     0.503210000000    -0.951828   
O49      O      0.110590000000     0.449380000000     0.495820000000    -1.05097    
O50      O      0.895630000000     0.449750000000     0.496400000000    -0.735371   
O51      O      0.948000000000     0.505320000000     0.611180000000    -0.569082   
O52      O      0.058890000000     0.499240000000     0.614750000000    -0.622016   
O53      O      0.897010000000     0.507890000000     0.558220000000    -0.708677   
O54      O      0.111080000000     0.498700000000     0.563750000000    -0.948144   
O55      O      0.949940000000     0.612140000000     0.506660000000    -0.724568   
O56      O      0.946440000000     0.397620000000     0.498420000000    -0.936175   
O57      O      0.058860000000     0.398370000000     0.494580000000    -1.0099     
O58      O      0.060970000000     0.613350000000     0.501050000000    -0.730088   
O59      O      0.002210000000     0.558780000000     0.612550000000    -0.547969   
O60      O      0.006850000000     0.448030000000     0.613440000000    -0.631253   
O61      O      0.047570000000     0.460370000000     0.544630000000    -1.99635    
O62      O      0.966340000000     0.542480000000     0.543210000000    -1.61586    
O63      O      0.958080000000     0.461660000000     0.549030000000    -1.26393    
O64      O      0.047080000000     0.549700000000     0.551220000000    -1.24469    
O65      O      0.611090000000     0.016330000000     0.449910000000    -1.01289    
O66      O      0.394740000000     0.008560000000     0.449710000000    -0.785198   
O67      O      0.505080000000     0.948390000000     0.398120000000    -1.02121    
O68      O      0.512160000000     0.060970000000     0.398430000000    -1.036      
O69      O      0.513110000000     0.112660000000     0.449240000000    -1.06581    
O70      O      0.507580000000     0.896510000000     0.449500000000    -0.803383   
O71      O      0.446480000000     0.006650000000     0.398150000000    -1.00099    
O72      O      0.559540000000     0.015520000000     0.398910000000    -1.06915    
O73      O      0.464480000000     0.050230000000     0.460780000000    -2.1158     
O74      O      0.549340000000     0.966200000000     0.460670000000    -2.09203    
O75      O      0.459850000000     0.960900000000     0.458800000000    -0.869464   
O76      O      0.513280000000     0.014670000000     0.496620000000    -2.58956    
O77      O      0.398640000000     0.003100000000     0.560200000000    -0.717906   
O78      O      0.612610000000     0.010580000000     0.561930000000    -0.917833   
O79      O      0.450360000000     0.898740000000     0.507190000000    -0.747379   
O80      O      0.447150000000     0.113410000000     0.499930000000    -0.967258   
O81      O      0.559160000000     0.112380000000     0.493180000000    -1.07551    
O82      O      0.561340000000     0.897630000000     0.498940000000    -0.780429   
O83      O      0.504650000000     0.951430000000     0.612060000000    -0.558144   
O84      O      0.509220000000     0.062800000000     0.613420000000    -0.616464   
O85      O      0.502660000000     0.899540000000     0.559940000000    -0.717026   
O86      O      0.509110000000     0.113810000000     0.561260000000    -0.964297   
O87      O      0.397910000000     0.950580000000     0.507030000000    -0.730933   
O88      O      0.612620000000     0.949320000000     0.500260000000    -0.901062   
O89      O      0.610930000000     0.061290000000     0.494260000000    -1.03375    
O90      O      0.395760000000     0.061660000000     0.498480000000    -0.761988   
O91      O      0.450740000000     0.005380000000     0.611940000000    -0.550642   
O92      O      0.561370000000     0.010360000000     0.613850000000    -0.620219   
O93      O      0.548830000000     0.050480000000     0.543970000000    -2.00952    
O94      O      0.467430000000     0.968350000000     0.543530000000    -1.59558    
O95      O      0.548140000000     0.960900000000     0.549920000000    -1.25142    
O96      O      0.459340000000     0.049060000000     0.549890000000    -1.23693    
O97      O      0.397600000000     0.449680000000     0.016620000000    -1.017      
O98      O      0.613680000000     0.450670000000     0.007150000000    -0.782262   
O99      O      0.503540000000     0.398800000000     0.947760000000    -0.979599   
O100     O      0.496950000000     0.398970000000     0.060580000000    -1.06179    
O101     O      0.496010000000     0.450060000000     0.112150000000    -1.07432    
O102     O      0.501020000000     0.450060000000     0.895930000000    -0.793897   
O103     O      0.562110000000     0.399070000000     0.005660000000    -0.978211   
O104     O      0.449340000000     0.398900000000     0.015150000000    -1.068      
O105     O      0.544480000000     0.461590000000     0.049340000000    -2.12575    
O106     O      0.459280000000     0.461090000000     0.965840000000    -2.10173    
O107     O      0.548610000000     0.459560000000     0.960070000000    -0.867217   
O108     O      0.495250000000     0.497100000000     0.014200000000    -2.60081    
O109     O      0.609830000000     0.561420000000     0.001540000000    -0.693202   
O110     O      0.395860000000     0.561680000000     0.011320000000    -0.94163    
O111     O      0.558070000000     0.508190000000     0.897680000000    -0.741929   
O112     O      0.562220000000     0.500980000000     0.112070000000    -0.965221   
O113     O      0.449780000000     0.494140000000     0.112410000000    -1.05854    
O114     O      0.447110000000     0.498620000000     0.897510000000    -0.747542   
O115     O      0.502920000000     0.612730000000     0.951130000000    -0.528497   
O116     O      0.499470000000     0.614010000000     0.062240000000    -0.614532   
O117     O      0.504850000000     0.560950000000     0.899070000000    -0.71235    
O118     O      0.499840000000     0.561900000000     0.113110000000    -0.932456   
O119     O      0.610450000000     0.508270000000     0.949340000000    -0.691953   
O120     O      0.395910000000     0.499590000000     0.949320000000    -0.947665   
O121     O      0.397780000000     0.494330000000     0.061540000000    -1.02878    
O122     O      0.613090000000     0.500000000000     0.059800000000    -0.769394   
O123     O      0.557520000000     0.613080000000     0.004360000000    -0.565464   
O124     O      0.446810000000     0.613760000000     0.010810000000    -0.582423   
O125     O      0.459860000000     0.544290000000     0.050050000000    -2.01884    
O126     O      0.540810000000     0.544420000000     0.967450000000    -1.60846    
O127     O      0.459900000000     0.550250000000     0.960630000000    -1.24956    
O128     O      0.549270000000     0.550700000000     0.048150000000    -1.23865    
Tb1      Tb     0.003410000000     0.005250000000     0.075060000000     6.32108    
Tb2      Tb     0.004760000000     0.936570000000     0.007770000000     4.31923    
Tb3      Tb     0.005080000000     0.075810000000     0.004520000000     6.17239    
Tb4      Tb     0.935300000000     0.007930000000     0.007300000000     4.33146    
Tb5      Tb     0.074710000000     0.003960000000     0.004840000000     6.24035    
Tb6      Tb     0.006950000000     0.007260000000     0.935950000000     3.18172    
Tb7      Tb     0.004870000000     0.506290000000     0.435440000000     6.32266    
Tb8      Tb     0.006120000000     0.574190000000     0.503650000000     4.28917    
Tb9      Tb     0.003150000000     0.434820000000     0.505120000000     6.19694    
Tb10     Tb     0.935290000000     0.504030000000     0.501880000000     4.45744    
Tb11     Tb     0.074540000000     0.505410000000     0.506890000000     6.39072    
Tb12     Tb     0.005190000000     0.502510000000     0.574550000000     3.17411    
Tb13     Tb     0.503550000000     0.004980000000     0.435330000000     6.39574    
Tb14     Tb     0.435380000000     0.006990000000     0.503030000000     4.29399    
Tb15     Tb     0.574780000000     0.005460000000     0.505480000000     6.28918    
Tb16     Tb     0.506290000000     0.936740000000     0.502960000000     4.39813    
Tb17     Tb     0.503630000000     0.076040000000     0.505270000000     6.4399     
Tb18     Tb     0.506960000000     0.008130000000     0.574380000000     3.12269    
Tb19     Tb     0.505150000000     0.435900000000     0.004420000000     6.44907    
Tb20     Tb     0.573130000000     0.504000000000     0.005830000000     4.30503    
Tb21     Tb     0.433730000000     0.505570000000     0.005340000000     6.28363    
Tb22     Tb     0.502060000000     0.503620000000     0.936110000000     4.41722    
Tb23     Tb     0.505270000000     0.505890000000     0.075430000000     6.50734    
Tb24     Tb     0.501380000000     0.574950000000     0.007570000000     3.13678    


