data_structure

_audit_creation_method RASPA-1.0
_audit_creation_date 2023-5-19
_audit_author_name 'Poobodin Mano'

_cell_length_a    20.2868
_cell_length_b    20.2598
_cell_length_c    20.2013
_cell_angle_alpha 90
_cell_angle_beta  90
_cell_angle_gamma 90
_cell_volume      8302.87

_symmetry_cell_setting          triclinic
_symmetry_space_group_name_Hall 'P 1'
_symmetry_space_group_name_H-M  'P 1'
_symmetry_Int_Tables_number     1

_symmetry_equiv_pos_as_xyz 'x,y,z'

loop_
_atom_site_label
_atom_site_type_symbol
_atom_site_fract_x
_atom_site_fract_y
_atom_site_fract_z
_atom_site_charge
C1       C      0.025620000000     0.160310000000     0.163060000000     0.722191   
C2       C      0.005890000000     0.853990000000     0.164520000000     0.685822   
C3       C      0.847450000000     0.018750000000     0.164820000000     0.678886   
C4       C      0.154350000000     0.020110000000     0.162700000000     0.748133   
C5       C      0.001300000000     0.854300000000     0.859460000000     0.554081   
C6       C      0.016430000000     0.160580000000     0.855900000000     0.667832   
C7       C      0.849660000000     0.855800000000     0.007340000000     0.574771   
C8       C      0.154160000000     0.852420000000     0.020750000000     0.702361   
C9       C      0.156260000000     0.159410000000     0.024560000000     0.723475   
C10      C      0.849750000000     0.162000000000     0.016660000000     0.695817   
C11      C      0.851970000000     0.003970000000     0.859390000000     0.564273   
C12      C      0.156820000000     0.011890000000     0.855510000000     0.656602   
C13      C      0.025720000000     0.356770000000     0.357050000000     0.718829   
C14      C      0.010870000000     0.662690000000     0.358230000000     0.692689   
C15      C      0.849510000000     0.505400000000     0.355180000000     0.67184    
C16      C      0.156990000000     0.496730000000     0.361670000000     0.743318   
C17      C      0.995060000000     0.658760000000     0.664110000000     0.552886   
C18      C      0.013930000000     0.353230000000     0.663780000000     0.656346   
C19      C      0.848140000000     0.655920000000     0.509010000000     0.584155   
C20      C      0.151610000000     0.667960000000     0.508670000000     0.69169    
C21      C      0.159540000000     0.360840000000     0.493070000000     0.72878    
C22      C      0.851770000000     0.350970000000     0.495550000000     0.680719   
C23      C      0.849330000000     0.508050000000     0.659290000000     0.575737   
C24      C      0.154680000000     0.496630000000     0.668760000000     0.645804   
C25      C      0.653140000000     0.021640000000     0.358340000000     0.733218   
C26      C      0.345250000000     0.014080000000     0.359600000000     0.678628   
C27      C      0.501030000000     0.854740000000     0.354510000000     0.692827   
C28      C      0.520610000000     0.160350000000     0.359950000000     0.742708   
C29      C      0.354040000000     0.005100000000     0.664720000000     0.576051   
C30      C      0.658760000000     0.005190000000     0.665090000000     0.648682   
C31      C      0.347920000000     0.859470000000     0.514060000000     0.589892   
C32      C      0.351470000000     0.164430000000     0.500860000000     0.680182   
C33      C      0.659310000000     0.154920000000     0.495500000000     0.719848   
C34      C      0.651520000000     0.847420000000     0.498700000000     0.685995   
C35      C      0.494480000000     0.855580000000     0.661420000000     0.566611   
C36      C      0.512360000000     0.159290000000     0.668360000000     0.64458    
C37      C      0.353240000000     0.351800000000     0.005180000000     0.734708   
C38      C      0.349560000000     0.662240000000     0.007450000000     0.675239   
C39      C      0.352370000000     0.504270000000     0.169430000000     0.672707   
C40      C      0.351230000000     0.483600000000     0.860060000000     0.730567   
C41      C      0.653230000000     0.661650000000     0.011280000000     0.55273    
C42      C      0.658310000000     0.355050000000     0.001280000000     0.665858   
C43      C      0.505100000000     0.660100000000     0.161190000000     0.590466   
C44      C      0.487660000000     0.660690000000     0.854810000000     0.69423    
C45      C      0.496900000000     0.355260000000     0.859050000000     0.747914   
C46      C      0.501560000000     0.355860000000     0.167840000000     0.690252   
C47      C      0.654980000000     0.515510000000     0.161900000000     0.575783   
C48      C      0.657740000000     0.504630000000     0.856020000000     0.650429   
C49      C      0.506050000000     0.322830000000     0.281340000000     0.035433   
C50      C      0.516590000000     0.243550000000     0.197040000000     0.0233731  
C51      C      0.513340000000     0.273250000000     0.328990000000     0.0485501  
C52      C      0.526190000000     0.193640000000     0.244170000000     0.102604   
C53      C      0.544380000000     0.126250000000     0.217530000000    -0.151909   
C54      C      0.501840000000     0.693360000000     0.274140000000     0.0313813  
C55      C      0.506770000000     0.773590000000     0.190220000000     0.00939398 
C56      C      0.499720000000     0.742840000000     0.321750000000     0.0391465  
C57      C      0.505180000000     0.824250000000     0.237610000000     0.107105   
C58      C      0.507660000000     0.894280000000     0.210960000000    -0.150083   
C59      C      0.500110000000     0.821830000000     0.774280000000     0.0283987  
C60      C      0.474210000000     0.743860000000     0.692070000000     0.00867051 
C61      C      0.497420000000     0.772520000000     0.822350000000     0.0447087  
C62      C      0.469110000000     0.693980000000     0.740360000000     0.110316   
C63      C      0.444760000000     0.627150000000     0.717200000000    -0.15359    
C64      C      0.494170000000     0.192950000000     0.779790000000     0.0295361  
C65      C      0.526930000000     0.270860000000     0.699890000000     0.0178837  
C66      C      0.488950000000     0.243100000000     0.826800000000     0.0479306  
C67      C      0.526280000000     0.320930000000     0.747770000000     0.104099   
C68      C      0.559050000000     0.385450000000     0.728790000000    -0.147666   
C69      C      0.740240000000     0.316190000000     0.481000000000     0.0357437  
C70      C      0.822640000000     0.237490000000     0.502270000000     0.02048    
C71      C      0.692710000000     0.266230000000     0.480720000000     0.0444417  
C72      C      0.775020000000     0.187000000000     0.505150000000     0.103813   
C73      C      0.799110000000     0.119960000000     0.528070000000    -0.153418   
C74      C      0.813550000000     0.768320000000     0.507520000000     0.0288788  
C75      C      0.734540000000     0.683960000000     0.498840000000     0.0075303  
C76      C      0.763760000000     0.815540000000     0.503100000000     0.0501591  
C77      C      0.683690000000     0.731050000000     0.493850000000     0.108657   
C78      C      0.614800000000     0.704470000000     0.482530000000    -0.174381   
C79      C      0.239250000000     0.198450000000     0.491650000000     0.0355874  
C80      C      0.323230000000     0.278210000000     0.493710000000     0.0193759  
C81      C      0.191920000000     0.248380000000     0.488590000000     0.0467417  
C82      C      0.276170000000     0.329200000000     0.489830000000     0.104234   
C83      C      0.303100000000     0.398780000000     0.486010000000    -0.155984   
C84      C      0.313500000000     0.747220000000     0.510510000000     0.0293538  
C85      C      0.234040000000     0.831350000000     0.517850000000     0.00746961 
C86      C      0.263640000000     0.700070000000     0.508420000000     0.0516643  
C87      C      0.182950000000     0.784350000000     0.515790000000     0.110059   
C88      C      0.113180000000     0.810910000000     0.520860000000    -0.174237   
C89      C      0.816990000000     0.505590000000     0.241630000000     0.0511219  
C90      C      0.737370000000     0.518310000000     0.325250000000     0.0178165  
C91      C      0.767460000000     0.509150000000     0.193700000000     0.0277614  
C92      C      0.687540000000     0.525240000000     0.277660000000     0.103597   
C93      C      0.620020000000     0.544360000000     0.303480000000    -0.167974   
C94      C      0.191550000000     0.486260000000     0.249350000000     0.041675   
C95      C      0.269210000000     0.511000000000     0.332150000000     0.0250375  
C96      C      0.241110000000     0.489570000000     0.201570000000     0.0404614  
C97      C      0.319440000000     0.515470000000     0.284660000000     0.098015   
C98      C      0.386240000000     0.538420000000     0.309170000000    -0.166927   
C99      C      0.188110000000     0.493510000000     0.782220000000     0.026856   
C100     C      0.266060000000     0.474970000000     0.698260000000     0.0197871  
C101     C      0.238020000000     0.488710000000     0.829850000000     0.0502943  
C102     C      0.316010000000     0.466590000000     0.745820000000     0.101479   
C103     C      0.381770000000     0.441780000000     0.720940000000    -0.154681   
C104     C      0.769970000000     0.500810000000     0.821820000000     0.0400551  
C105     C      0.686270000000     0.513070000000     0.742300000000     0.0246744  
C106     C      0.817270000000     0.502430000000     0.771850000000     0.0346892  
C107     C      0.733360000000     0.515920000000     0.691350000000     0.1001     
C108     C      0.707110000000     0.528670000000     0.622230000000    -0.167894   
C109     C      0.686770000000     0.775310000000     0.017440000000     0.0350966  
C110     C      0.765750000000     0.692760000000     0.998800000000     0.00851383 
C111     C      0.736700000000     0.823450000000     0.015510000000     0.0366277  
C112     C      0.815880000000     0.740660000000     0.993770000000     0.109917   
C113     C      0.882860000000     0.715990000000     0.971820000000    -0.17226    
C114     C      0.818120000000     0.274840000000     0.017870000000     0.0546392  
C115     C      0.738510000000     0.192250000000     0.999240000000     0.0205889  
C116     C      0.769690000000     0.323040000000     0.011910000000     0.0302958  
C117     C      0.689950000000     0.240320000000     0.989600000000     0.10742    
C118     C      0.623500000000     0.216280000000     0.964830000000    -0.146253   
C119     C      0.187910000000     0.739910000000     0.025180000000     0.0344896  
C120     C      0.265990000000     0.823740000000     0.006130000000     0.0227351  
C121     C      0.237610000000     0.692650000000     0.020250000000     0.0443551  
C122     C      0.315790000000     0.776830000000     0.997850000000     0.105402   
C123     C      0.382040000000     0.802810000000     0.974590000000    -0.167071   
C124     C      0.190660000000     0.272420000000     0.019480000000     0.0399076  
C125     C      0.270260000000     0.188590000000     0.024360000000     0.0204777  
C126     C      0.240600000000     0.319600000000     0.011890000000     0.0397491  
C127     C      0.321340000000     0.235660000000     0.018760000000     0.100304   
C128     C      0.391100000000     0.209390000000     0.024740000000    -0.154215   
C129     C      0.739910000000     0.015280000000     0.826380000000     0.0388732  
C130     C      0.820270000000     0.985960000000     0.747690000000     0.00745131 
C131     C      0.692000000000     0.015890000000     0.776890000000     0.0380603  
C132     C      0.771750000000     0.982280000000     0.698170000000     0.112037   
C133     C      0.792170000000     0.951630000000     0.632870000000    -0.155968   
C134     C      0.191390000000     0.014050000000     0.742780000000     0.0369411  
C135     C      0.270000000000     0.002460000000     0.827520000000     0.0231818  
C136     C      0.241510000000     0.011250000000     0.695610000000     0.0401938  
C137     C      0.320810000000     0.997250000000     0.780600000000     0.102721   
C138     C      0.388900000000     0.981710000000     0.807440000000    -0.17565    
C139     C      0.266140000000     0.031710000000     0.197700000000     0.0421831  
C140     C      0.184260000000     0.002750000000     0.274860000000     0.0199715  
C141     C      0.313580000000     0.029140000000     0.247760000000     0.0419068  
C142     C      0.231410000000     0.998960000000     0.325490000000     0.101584   
C143     C      0.207680000000     0.973580000000     0.391980000000    -0.165956   
C144     C      0.686100000000     0.013450000000     0.245310000000     0.0480567  
C145     C      0.764720000000     0.039010000000     0.326810000000     0.021677   
C146     C      0.735460000000     0.013110000000     0.197260000000     0.0315015  
C147     C      0.814730000000     0.040840000000     0.278660000000     0.099169   
C148     C      0.882090000000     0.063980000000     0.301360000000    -0.147655   
C149     C      0.010670000000     0.240440000000     0.694770000000     0.051922   
C150     C      0.033020000000     0.322070000000     0.774820000000     0.0107679  
C151     C      0.011950000000     0.192320000000     0.743680000000     0.0339061  
C152     C      0.037920000000     0.273720000000     0.823910000000     0.111724   
C153     C      0.063840000000     0.295720000000     0.890670000000    -0.152512   
C154     C      0.982100000000     0.771380000000     0.698400000000     0.035894   
C155     C      0.012970000000     0.691100000000     0.776360000000     0.00562727 
C156     C      0.984420000000     0.820010000000     0.747900000000     0.0358485  
C157     C      0.019540000000     0.740180000000     0.825600000000     0.105085   
C158     C      0.053150000000     0.719830000000     0.889480000000    -0.170423   
C159     C      0.999860000000     0.822720000000     0.277500000000     0.0524996  
C160     C      0.025900000000     0.743460000000     0.196150000000     0.0150824  
C161     C      0.002210000000     0.774130000000     0.325900000000     0.0304302  
C162     C      0.031590000000     0.694710000000     0.244760000000     0.105851   
C163     C      0.059030000000     0.628510000000     0.222910000000    -0.147618   
C164     C      0.025300000000     0.323690000000     0.243060000000     0.0415032  
C165     C      0.042660000000     0.244460000000     0.325960000000     0.0185153  
C166     C      0.025560000000     0.273700000000     0.194910000000     0.0412377  
C167     C      0.045470000000     0.194050000000     0.277850000000     0.0979574  
C168     C      0.067060000000     0.126850000000     0.301670000000    -0.155413   
H1       H      0.955120000000     0.961230000000     0.060410000000    -1.25564    
H2       H      0.042360000000     0.047430000000     0.050390000000    -1.1464     
H3       H      0.945160000000     0.119190000000     0.950650000000    -0.555865   
H4       H      0.113620000000     0.947510000000     0.952540000000    -0.580938   
H5       H      0.956130000000     0.553850000000     0.460920000000    -1.24996    
H6       H      0.044130000000     0.469470000000     0.471690000000    -1.1002     
H7       H      0.945110000000     0.394360000000     0.567850000000    -0.526241   
H8       H      0.112180000000     0.569400000000     0.573450000000    -0.559574   
H9       H      0.454020000000     0.962090000000     0.461920000000    -1.28289    
H10      H      0.542840000000     0.046270000000     0.471760000000    -1.08324    
H11      H      0.612790000000     0.943580000000     0.568100000000    -0.53736    
H12      H      0.446160000000     0.120210000000     0.571080000000    -0.520038   
H13      H      0.453940000000     0.554310000000     0.057820000000    -1.22324    
H14      H      0.463630000000     0.467790000000     0.971910000000    -1.1034     
H15      H      0.564230000000     0.398070000000     0.070080000000    -0.558055   
H16      H      0.560170000000     0.568010000000     0.898350000000    -0.569026   
H17      H      0.510380000000     0.288210000000     0.380430000000     0.0235717  
H18      H      0.499130000000     0.373120000000     0.298350000000     0.0254745  
H19      H      0.519160000000     0.230080000000     0.145120000000     0.0283058  
H20      H      0.501940000000     0.091860000000     0.221440000000     0.0562068  
H21      H      0.559180000000     0.127880000000     0.164570000000     0.0431374  
H22      H      0.587800000000     0.107530000000     0.244690000000     0.0722996  
H23      H      0.495480000000     0.726990000000     0.372790000000     0.0224706  
H24      H      0.499970000000     0.642790000000     0.291230000000     0.0211561  
H25      H      0.509420000000     0.787240000000     0.138350000000     0.0373456  
H26      H      0.551640000000     0.920220000000     0.230530000000     0.0624531  
H27      H      0.511970000000     0.896000000000     0.156150000000     0.0425107  
H28      H      0.461590000000     0.921060000000     0.223630000000     0.0600047  
H29      H      0.508920000000     0.786980000000     0.872720000000     0.0245445  
H30      H      0.512770000000     0.871280000000     0.790370000000     0.0303223  
H31      H      0.463840000000     0.731180000000     0.640920000000     0.0381616  
H32      H      0.405790000000     0.608390000000     0.750910000000     0.067537   
H33      H      0.421910000000     0.629710000000     0.667260000000     0.0455768  
H34      H      0.486540000000     0.591870000000     0.714190000000     0.0548693  
H35      H      0.472560000000     0.229230000000     0.875840000000     0.0196812  
H36      H      0.481650000000     0.143130000000     0.794840000000     0.0271787  
H37      H      0.543630000000     0.282980000000     0.650300000000     0.0306246  
H38      H      0.595630000000     0.399160000000     0.767130000000     0.0694726  
H39      H      0.587040000000     0.381560000000     0.681650000000     0.0434173  
H40      H      0.522110000000     0.425080000000     0.721990000000     0.0544005  
H41      H      0.642300000000     0.280910000000     0.470590000000     0.0272795  
H42      H      0.723960000000     0.366350000000     0.471830000000     0.0288919  
H43      H      0.873680000000     0.224640000000     0.511780000000     0.0310127  
H44      H      0.795010000000     0.083210000000     0.487680000000     0.0629013  
H45      H      0.851720000000     0.120620000000     0.543370000000     0.0436752  
H46      H      0.770750000000     0.104200000000     0.572300000000     0.0662753  
H47      H      0.779190000000     0.866720000000     0.504900000000     0.0193887  
H48      H      0.863840000000     0.785780000000     0.512360000000     0.0298779  
H49      H      0.721560000000     0.632150000000     0.495480000000     0.0339393  
H50      H      0.593120000000     0.727730000000     0.437930000000     0.0800104  
H51      H      0.614440000000     0.650430000000     0.473060000000     0.0490682  
H52      H      0.583640000000     0.713120000000     0.526880000000     0.0721163  
H53      H      0.140840000000     0.232740000000     0.486720000000     0.0259833  
H54      H      0.222060000000     0.147770000000     0.491710000000     0.0278461  
H55      H      0.375010000000     0.291530000000     0.495280000000     0.0298832  
H56      H      0.291080000000     0.426490000000     0.531800000000     0.0613039  
H57      H      0.357600000000     0.400000000000     0.480630000000     0.0423141  
H58      H      0.283120000000     0.423590000000     0.441630000000     0.0760581  
H59      H      0.279140000000     0.649010000000     0.504360000000     0.0200501  
H60      H      0.364000000000     0.729850000000     0.508050000000     0.0288422  
H61      H      0.220910000000     0.883060000000     0.522290000000     0.0364961  
H62      H      0.087850000000     0.789460000000     0.564580000000     0.0767432  
H63      H      0.111880000000     0.865320000000     0.527630000000     0.0519789  
H64      H      0.085630000000     0.800400000000     0.474560000000     0.0777497  
H65      H      0.782660000000     0.503990000000     0.142510000000     0.0331972  
H66      H      0.867360000000     0.498650000000     0.225100000000     0.0210484  
H67      H      0.723890000000     0.523170000000     0.377010000000     0.0356665  
H68      H      0.585580000000     0.501860000000     0.300310000000     0.0705971  
H69      H      0.621290000000     0.560140000000     0.356170000000     0.0485562  
H70      H      0.601370000000     0.587460000000     0.275460000000     0.081289   
H71      H      0.226930000000     0.479660000000     0.150770000000     0.0216595  
H72      H      0.141900000000     0.474910000000     0.233020000000     0.0234381  
H73      H      0.281410000000     0.522550000000     0.383110000000     0.027196   
H74      H      0.403370000000     0.580570000000     0.278760000000     0.0701611  
H75      H      0.384600000000     0.556630000000     0.361040000000     0.0466664  
H76      H      0.422170000000     0.497090000000     0.307900000000     0.0719439  
H77      H      0.223660000000     0.496020000000     0.881020000000     0.0208245  
H78      H      0.138340000000     0.503260000000     0.799150000000     0.0289272  
H79      H      0.278700000000     0.468010000000     0.646570000000     0.0289345  
H80      H      0.399730000000     0.401390000000     0.753250000000     0.0722793  
H81      H      0.378070000000     0.420330000000     0.670430000000     0.0446048  
H82      H      0.417710000000     0.482910000000     0.718580000000     0.0576643  
H83      H      0.868200000000     0.497330000000     0.787270000000     0.0344568  
H84      H      0.786940000000     0.495030000000     0.872390000000     0.0309969  
H85      H      0.634670000000     0.518300000000     0.729210000000     0.0285827  
H86      H      0.714370000000     0.484520000000     0.590490000000     0.0705811  
H87      H      0.653420000000     0.539540000000     0.621900000000     0.0481469  
H88      H      0.731450000000     0.572770000000     0.600840000000     0.0814708  
H89      H      0.721920000000     0.874200000000     0.023780000000     0.0293435  
H90      H      0.636600000000     0.791530000000     0.026180000000     0.0299757  
H91      H      0.779150000000     0.641500000000     0.991000000000     0.0421115  
H92      H      0.918050000000     0.716830000000     0.013910000000     0.0702303  
H93      H      0.881170000000     0.664360000000     0.953300000000     0.0559877  
H94      H      0.900850000000     0.746190000000     0.929740000000     0.0839386  
H95      H      0.784860000000     0.373870000000     0.019030000000     0.0315831  
H96      H      0.868140000000     0.290810000000     0.028050000000     0.0216468  
H97      H      0.724930000000     0.140850000000     0.992650000000     0.0359525  
H98      H      0.605870000000     0.247910000000     0.923600000000     0.0698828  
H99      H      0.626320000000     0.165460000000     0.944300000000     0.0454244  
H100     H      0.587220000000     0.215330000000     0.006000000000     0.0540814  
H101     H      0.223400000000     0.641590000000     0.027680000000     0.0199257  
H102     H      0.138090000000     0.723170000000     0.035050000000     0.0243123  
H103     H      0.278760000000     0.875310000000     0.999350000000     0.0332658  
H104     H      0.398920000000     0.774370000000     0.930910000000     0.08249    
H105     H      0.379440000000     0.855040000000     0.957910000000     0.0489002  
H106     H      0.418630000000     0.800870000000     0.015420000000     0.070369   
H107     H      0.225030000000     0.370560000000     0.007060000000     0.0228368  
H108     H      0.140120000000     0.289720000000     0.020380000000     0.0223353  
H109     H      0.283690000000     0.137000000000     0.029380000000     0.0327567  
H110     H      0.416660000000     0.233300000000     0.066960000000     0.0635427  
H111     H      0.392530000000     0.155470000000     0.034680000000     0.0410528  
H112     H      0.418300000000     0.217260000000     0.977870000000     0.0669112  
H113     H      0.642430000000     0.029800000000     0.791390000000     0.0300181  
H114     H      0.724810000000     0.028160000000     0.876240000000     0.0305142  
H115     H      0.870480000000     0.972440000000     0.735020000000     0.0389375  
H116     H      0.797390000000     0.990020000000     0.594180000000     0.0549953  
H117     H      0.840260000000     0.925600000000     0.636580000000     0.048141   
H118     H      0.755690000000     0.913720000000     0.617700000000     0.0744416  
H119     H      0.226710000000     0.015990000000     0.644260000000     0.0307479  
H120     H      0.141170000000     0.020080000000     0.725420000000     0.0303607  
H121     H      0.282800000000     0.998100000000     0.879480000000     0.0327953  
H122     H      0.421680000000     0.025300000000     0.802440000000     0.0759354  
H123     H      0.387980000000     0.968470000000     0.860820000000     0.0516593  
H124     H      0.409570000000     0.938130000000     0.781560000000     0.0823453  
H125     H      0.363910000000     0.040980000000     0.234080000000     0.0195746  
H126     H      0.282130000000     0.044660000000     0.148150000000     0.0243128  
H127     H      0.133680000000     0.989980000000     0.286800000000     0.0303463  
H128     H      0.206390000000     0.014360000000     0.428670000000     0.0702873  
H129     H      0.157090000000     0.952680000000     0.389410000000     0.0482431  
H130     H      0.239910000000     0.932780000000     0.409100000000     0.0705487  
H131     H      0.720700000000     0.001070000000     0.147090000000     0.0275801  
H132     H      0.636430000000     0.001770000000     0.229640000000     0.0159369  
H133     H      0.777650000000     0.050390000000     0.377550000000     0.0318895  
H134     H      0.901690000000     0.101920000000     0.266920000000     0.0645217  
H135     H      0.880210000000     0.087850000000     0.350870000000     0.042752   
H136     H      0.916290000000     0.021370000000     0.305180000000     0.0518255  
H137     H      0.001770000000     0.142020000000     0.728430000000     0.0308752  
H138     H      0.000290000000     0.224930000000     0.644460000000     0.0232054  
H139     H      0.043110000000     0.372990000000     0.788180000000     0.0387986  
H140     H      0.101570000000     0.260320000000     0.908450000000     0.0702149  
H141     H      0.088910000000     0.344430000000     0.887890000000     0.0468084  
H142     H      0.022780000000     0.300370000000     0.926720000000     0.0590161  
H143     H      0.970880000000     0.869860000000     0.733810000000     0.0301681  
H144     H      0.968100000000     0.786460000000     0.648860000000     0.0289376  
H145     H      0.026190000000     0.640790000000     0.789100000000     0.0397834  
H146     H      0.016790000000     0.714730000000     0.930010000000     0.0669033  
H147     H      0.078870000000     0.671640000000     0.884560000000     0.0543066  
H148     H      0.091690000000     0.756310000000     0.903020000000     0.0779616  
H149     H      0.990850000000     0.789030000000     0.376190000000     0.0276224  
H150     H      0.987860000000     0.872590000000     0.292830000000     0.0195214  
H151     H      0.036910000000     0.730210000000     0.145270000000     0.0367617  
H152     H      0.018620000000     0.591890000000     0.217870000000     0.0540568  
H153     H      0.084260000000     0.631810000000     0.174170000000     0.0440198  
H154     H      0.096940000000     0.610970000000     0.258430000000     0.0655444  
H155     H      0.017470000000     0.288770000000     0.144060000000     0.0251471  
H156     H      0.017540000000     0.374030000000     0.226600000000     0.0236014  
H157     H      0.050730000000     0.231200000000     0.377370000000     0.0332959  
H158     H      0.107160000000     0.109290000000     0.269230000000     0.0711072  
H159     H      0.087850000000     0.128260000000     0.352560000000     0.0449899  
H160     H      0.025070000000     0.091870000000     0.302250000000     0.0577649  
N1       N      0.506860000000     0.307750000000     0.215420000000    -0.22918    
N2       N      0.521530000000     0.208250000000     0.311130000000    -0.255389   
N3       N      0.505110000000     0.708670000000     0.208420000000    -0.21276    
N4       N      0.501880000000     0.808340000000     0.304500000000    -0.245157   
N5       N      0.489740000000     0.807350000000     0.709010000000    -0.203896   
N6       N      0.483880000000     0.708190000000     0.805900000000    -0.243636   
N7       N      0.511370000000     0.207300000000     0.716010000000    -0.220472   
N8       N      0.503130000000     0.307410000000     0.810950000000    -0.25846    
N9       N      0.805110000000     0.301860000000     0.492150000000    -0.227073   
N10      N      0.709170000000     0.201560000000     0.493090000000    -0.250166   
N11      N      0.798980000000     0.702520000000     0.505980000000    -0.209425   
N12      N      0.698540000000     0.797870000000     0.497860000000    -0.243133   
N13      N      0.304820000000     0.213360000000     0.495530000000    -0.226998   
N14      N      0.209300000000     0.314000000000     0.489520000000    -0.25202    
N15      N      0.298770000000     0.812870000000     0.514590000000    -0.210634   
N16      N      0.198260000000     0.717670000000     0.510570000000    -0.243994   
N17      N      0.801660000000     0.508950000000     0.307360000000    -0.22972    
N18      N      0.702410000000     0.517370000000     0.211020000000    -0.218468   
N19      N      0.205740000000     0.496670000000     0.314620000000    -0.246431   
N20      N      0.305220000000     0.503260000000     0.218610000000    -0.240974   
N21      N      0.202590000000     0.488920000000     0.716320000000    -0.219604   
N22      N      0.302670000000     0.478290000000     0.812100000000    -0.255862   
N23      N      0.704510000000     0.505660000000     0.807000000000    -0.223408   
N24      N      0.799870000000     0.509130000000     0.706410000000    -0.218621   
N25      N      0.701420000000     0.709810000000     0.009930000000    -0.201048   
N26      N      0.801680000000     0.806800000000     0.005080000000    -0.222381   
N27      N      0.802200000000     0.209570000000     0.012630000000    -0.233288   
N28      N      0.705280000000     0.306230000000     0.999880000000    -0.234381   
N29      N      0.202400000000     0.805350000000     0.018620000000    -0.233006   
N30      N      0.301780000000     0.710530000000     0.007810000000    -0.244289   
N31      N      0.205280000000     0.206690000000     0.023910000000    -0.239356   
N32      N      0.306160000000     0.302180000000     0.010690000000    -0.25173    
N33      N      0.804220000000     0.001940000000     0.811410000000    -0.204479   
N34      N      0.707600000000     0.001210000000     0.712420000000    -0.23559    
N35      N      0.205740000000     0.010240000000     0.808680000000    -0.223002   
N36      N      0.306470000000     0.004010000000     0.713700000000    -0.220838   
N37      N      0.201410000000     0.019380000000     0.211520000000    -0.246013   
N38      N      0.296650000000     0.014110000000     0.311880000000    -0.243623   
N39      N      0.700870000000     0.025210000000     0.310230000000    -0.244854   
N40      N      0.800140000000     0.024560000000     0.213580000000    -0.240013   
N41      N      0.018910000000     0.305350000000     0.710920000000    -0.224496   
N42      N      0.022670000000     0.208820000000     0.808630000000    -0.238045   
N43      N      0.995560000000     0.706730000000     0.712740000000    -0.199638   
N44      N      0.001720000000     0.804880000000     0.811910000000    -0.217351   
N45      N      0.009910000000     0.806870000000     0.212590000000    -0.234232   
N46      N      0.015470000000     0.709760000000     0.309670000000    -0.244617   
N47      N      0.031680000000     0.308840000000     0.308840000000    -0.238405   
N48      N      0.033010000000     0.208330000000     0.211770000000    -0.251811   
O1       O      0.020990000000     0.179310000000     0.099570000000    -1.06675    
O2       O      0.008000000000     0.834390000000     0.101110000000    -0.795853   
O3       O      0.911080000000     0.014070000000     0.182710000000    -1.04111    
O4       O      0.091110000000     0.015450000000     0.180930000000    -1.10556    
O5       O      0.173690000000     0.021980000000     0.099430000000    -1.10386    
O6       O      0.827970000000     0.016480000000     0.101120000000    -0.775582   
O7       O      0.000470000000     0.917550000000     0.183100000000    -1.0377     
O8       O      0.019740000000     0.097040000000     0.181070000000    -1.09998    
O9       O      0.073130000000     0.944430000000     0.082050000000    -2.13368    
O10      O      0.939410000000     0.080440000000     0.081400000000    -2.11076    
O11      O      0.930410000000     0.937110000000     0.085890000000    -0.861625   
O12      O      0.016870000000     0.022190000000     0.024420000000    -2.60579    
O13      O      0.999770000000     0.836790000000     0.924020000000    -0.710075   
O14      O      0.011730000000     0.178870000000     0.919560000000    -0.970262   
O15      O      0.830350000000     0.919990000000     0.009380000000    -0.71209    
O16      O      0.172920000000     0.916040000000     0.017710000000    -0.99927    
O17      O      0.174090000000     0.095680000000     0.023430000000    -1.09347    
O18      O      0.830700000000     0.098530000000     0.016830000000    -0.77005    
O19      O      0.915690000000     0.005360000000     0.839740000000    -0.58764    
O20      O      0.093590000000     0.011450000000     0.835660000000    -0.621955   
O21      O      0.832600000000     0.005670000000     0.923410000000    -0.707361   
O22      O      0.174600000000     0.011020000000     0.919780000000    -0.969442   
O23      O      0.913650000000     0.837420000000     0.009700000000    -0.738214   
O24      O      0.913370000000     0.180870000000     0.016160000000    -0.974145   
O25      O      0.093110000000     0.178960000000     0.022580000000    -1.06438    
O26      O      0.090720000000     0.833490000000     0.021730000000    -0.765136   
O27      O      0.002730000000     0.918130000000     0.839190000000    -0.570779   
O28      O      0.012440000000     0.097270000000     0.836370000000    -0.626423   
O29      O      0.073640000000     0.077280000000     0.947550000000    -2.04654    
O30      O      0.942160000000     0.947620000000     0.949400000000    -1.57853    
O31      O      0.931640000000     0.076640000000     0.938430000000    -1.20329    
O32      O      0.071200000000     0.934680000000     0.939570000000    -1.23218    
O33      O      0.024360000000     0.337810000000     0.420610000000    -1.05773    
O34      O      0.008360000000     0.682290000000     0.421800000000    -0.782116   
O35      O      0.913460000000     0.507620000000     0.336890000000    -1.00442    
O36      O      0.094180000000     0.495470000000     0.341710000000    -1.09545    
O37      O      0.174770000000     0.501540000000     0.425250000000    -1.09988    
O38      O      0.830060000000     0.502370000000     0.418620000000    -0.803378   
O39      O      0.006990000000     0.599210000000     0.339900000000    -1.04774    
O40      O      0.019000000000     0.419900000000     0.338490000000    -1.06416    
O41      O      0.073830000000     0.573270000000     0.441580000000    -2.10718    
O42      O      0.942190000000     0.434920000000     0.437800000000    -2.11255    
O43      O      0.931750000000     0.578000000000     0.435140000000    -0.86963    
O44      O      0.017520000000     0.493890000000     0.497260000000    -2.58989    
O45      O      0.992390000000     0.677990000000     0.599890000000    -0.69448    
O46      O      0.011780000000     0.334740000000     0.599860000000    -0.953713   
O47      O      0.830540000000     0.591480000000     0.508130000000    -0.744879   
O48      O      0.172160000000     0.604590000000     0.511390000000    -0.96331    
O49      O      0.175650000000     0.424610000000     0.497170000000    -1.09404    
O50      O      0.831790000000     0.414250000000     0.495310000000    -0.769748   
O51      O      0.912710000000     0.506030000000     0.680240000000    -0.585597   
O52      O      0.091170000000     0.500580000000     0.687540000000    -0.613896   
O53      O      0.832470000000     0.506940000000     0.594790000000    -0.737705   
O54      O      0.173610000000     0.499600000000     0.604830000000    -0.958502   
O55      O      0.911410000000     0.677020000000     0.510300000000    -0.734932   
O56      O      0.915720000000     0.333540000000     0.501140000000    -0.946579   
O57      O      0.096700000000     0.340030000000     0.495560000000    -1.05047    
O58      O      0.087670000000     0.683820000000     0.505960000000    -0.778128   
O59      O      0.000610000000     0.594820000000     0.683000000000    -0.576354   
O60      O      0.010560000000     0.416360000000     0.683710000000    -0.629845   
O61      O      0.073820000000     0.438540000000     0.574130000000    -2.01822    
O62      O      0.940420000000     0.566040000000     0.571740000000    -1.59358    
O63      O      0.931460000000     0.436680000000     0.580820000000    -1.23767    
O64      O      0.068930000000     0.581330000000     0.584760000000    -1.24567    
O65      O      0.672380000000     0.020400000000     0.421640000000    -1.07463    
O66      O      0.327640000000     0.016330000000     0.423500000000    -0.808386   
O67      O      0.498780000000     0.918760000000     0.338270000000    -1.06001    
O68      O      0.514700000000     0.097280000000     0.341960000000    -1.11989    
O69      O      0.520560000000     0.179240000000     0.423560000000    -1.0513     
O70      O      0.502330000000     0.834130000000     0.417920000000    -0.79188    
O71      O      0.408840000000     0.011690000000     0.340050000000    -1.02032    
O72      O      0.589950000000     0.017200000000     0.339780000000    -1.09668    
O73      O      0.440640000000     0.081290000000     0.441540000000    -2.10902    
O74      O      0.571650000000     0.942510000000     0.438680000000    -2.11149    
O75      O      0.428670000000     0.938600000000     0.436510000000    -0.87654    
O76      O      0.517030000000     0.021480000000     0.497790000000    -2.58841    
O77      O      0.334150000000     0.006850000000     0.600730000000    -0.724355   
O78      O      0.675840000000     0.005040000000     0.600790000000    -0.950038   
O79      O      0.411050000000     0.838260000000     0.511120000000    -0.747575   
O80      O      0.415610000000     0.181850000000     0.504910000000    -0.930228   
O81      O      0.596530000000     0.175840000000     0.497820000000    -1.04432    
O82      O      0.587440000000     0.831360000000     0.500380000000    -0.780904   
O83      O      0.501870000000     0.918780000000     0.681530000000    -0.590944   
O84      O      0.509200000000     0.095810000000     0.687120000000    -0.634557   
O85      O      0.492450000000     0.837090000000     0.597040000000    -0.712848   
O86      O      0.513450000000     0.178380000000     0.604420000000    -0.935699   
O87      O      0.330290000000     0.923930000000     0.514580000000    -0.748742   
O88      O      0.671970000000     0.910840000000     0.501070000000    -0.94325    
O89      O      0.675360000000     0.090970000000     0.496910000000    -1.0633     
O90      O      0.331340000000     0.101250000000     0.502260000000    -0.77477    
O91      O      0.417910000000     0.007120000000     0.682650000000    -0.602035   
O92      O      0.595550000000     0.008360000000     0.684950000000    -0.632369   
O93      O      0.576110000000     0.075720000000     0.574310000000    -1.98378    
O94      O      0.442150000000     0.948440000000     0.572450000000    -1.61291    
O95      O      0.570040000000     0.932270000000     0.581460000000    -1.24557    
O96      O      0.433150000000     0.077740000000     0.584170000000    -1.24996    
O97      O      0.416910000000     0.335440000000     0.001670000000    -1.09831    
O98      O      0.412820000000     0.680800000000     0.006760000000    -0.803905   
O99      O      0.332520000000     0.506730000000     0.105640000000    -0.990279   
O100     O      0.332740000000     0.489300000000     0.923540000000    -1.07841    
O101     O      0.414250000000     0.487850000000     0.841140000000    -1.1043     
O102     O      0.416050000000     0.502150000000     0.186710000000    -0.809455   
O103     O      0.330840000000     0.598270000000     0.010490000000    -0.993135   
O104     O      0.333440000000     0.415120000000     0.006580000000    -1.0454     
O105     O      0.430580000000     0.569720000000     0.939480000000    -2.08822    
O106     O      0.433920000000     0.435960000000     0.076030000000    -2.10794    
O107     O      0.428660000000     0.578740000000     0.082450000000    -0.869034   
O108     O      0.489190000000     0.493720000000     0.997140000000    -2.59668    
O109     O      0.589000000000     0.680130000000     0.012830000000    -0.690738   
O110     O      0.594860000000     0.337160000000     0.005170000000    -0.976963   
O111     O      0.504250000000     0.596510000000     0.181460000000    -0.757293   
O112     O      0.491340000000     0.596910000000     0.837190000000    -0.991598   
O113     O      0.496220000000     0.418450000000     0.840440000000    -1.11316    
O114     O      0.498860000000     0.419480000000     0.186450000000    -0.774041   
O115     O      0.674740000000     0.511830000000     0.097950000000    -0.579433   
O116     O      0.677590000000     0.503700000000     0.919400000000    -0.619617   
O117     O      0.591120000000     0.514090000000     0.180000000000    -0.739994   
O118     O      0.593680000000     0.506950000000     0.838270000000    -0.95124    
O119     O      0.504160000000     0.678880000000     0.096980000000    -0.741489   
O120     O      0.503210000000     0.337140000000     0.103850000000    -0.96812    
O121     O      0.493970000000     0.336540000000     0.922670000000    -1.08764    
O122     O      0.490930000000     0.680020000000     0.918540000000    -0.762224   
O123     O      0.672920000000     0.597870000000     0.008450000000    -0.577317   
O124     O      0.677690000000     0.418560000000     0.003000000000    -0.618472   
O125     O      0.566540000000     0.438360000000     0.940440000000    -2.04338    
O126     O      0.564440000000     0.569110000000     0.070260000000    -1.59901    
O127     O      0.576590000000     0.440630000000     0.083070000000    -1.23702    
O128     O      0.573640000000     0.580760000000     0.940810000000    -1.23568    
Tb1      Tb     0.001040000000     0.007450000000     0.122650000000     6.50531    
Tb2      Tb     0.003900000000     0.897340000000     0.014950000000     4.28481    
Tb3      Tb     0.002810000000     0.120170000000     0.009810000000     6.4294     
Tb4      Tb     0.892050000000     0.010440000000     0.014430000000     4.23215    
Tb5      Tb     0.114600000000     0.006310000000     0.010220000000     6.61078    
Tb6      Tb     0.006290000000     0.009890000000     0.899190000000     3.12756    
Tb7      Tb     0.003570000000     0.509080000000     0.398690000000     6.41569    
Tb8      Tb     0.002510000000     0.618440000000     0.508130000000     4.26319    
Tb9      Tb     0.004710000000     0.395410000000     0.510380000000     6.30515    
Tb10     Tb     0.893070000000     0.503010000000     0.504890000000     4.38734    
Tb11     Tb     0.114790000000     0.511870000000     0.513950000000     6.50537    
Tb12     Tb     0.004670000000     0.504140000000     0.622310000000     3.12282    
Tb13     Tb     0.500240000000     0.007420000000     0.399460000000     6.52806    
Tb14     Tb     0.392530000000     0.012480000000     0.508690000000     4.40714    
Tb15     Tb     0.614620000000     0.003080000000     0.510940000000     6.31244    
Tb16     Tb     0.501780000000     0.896670000000     0.506040000000     4.34953    
Tb17     Tb     0.504920000000     0.119920000000     0.513020000000     6.21598    
Tb18     Tb     0.507440000000     0.009630000000     0.622320000000     3.19056    
Tb19     Tb     0.391100000000     0.507380000000     0.013290000000     6.24728    
Tb20     Tb     0.498590000000     0.618140000000     0.007740000000     4.2746     
Tb21     Tb     0.505370000000     0.396120000000     0.012650000000     6.46396    
Tb22     Tb     0.500580000000     0.506330000000     0.121540000000     4.41054    
Tb23     Tb     0.503290000000     0.508460000000     0.898660000000     6.53982    
Tb24     Tb     0.614690000000     0.506240000000     0.006950000000     3.10099    


