data_structure

_audit_creation_method RASPA-1.0
_audit_creation_date 2023-5-19
_audit_author_name 'Poobodin Mano'

_cell_length_a    20.1662
_cell_length_b    20.1218
_cell_length_c    19.9763
_cell_angle_alpha 90
_cell_angle_beta  90
_cell_angle_gamma 90
_cell_volume      8105.99

_symmetry_cell_setting          triclinic
_symmetry_space_group_name_Hall 'P 1'
_symmetry_space_group_name_H-M  'P 1'
_symmetry_Int_Tables_number     1

_symmetry_equiv_pos_as_xyz 'x,y,z'

loop_
_atom_site_label
_atom_site_type_symbol
_atom_site_fract_x
_atom_site_fract_y
_atom_site_fract_z
_atom_site_charge
C1       C      0.043840000000     0.168620000000     0.155830000000     0.712056   
C2       C      0.004200000000     0.860280000000     0.178990000000     0.672492   
C3       C      0.853840000000     0.039040000000     0.168810000000     0.670703   
C4       C      0.160210000000     0.019320000000     0.169390000000     0.745885   
C5       C      0.998290000000     0.847000000000     0.872390000000     0.57527    
C6       C      0.034170000000     0.148790000000     0.845560000000     0.638846   
C7       C      0.846120000000     0.866590000000     0.024580000000     0.588407   
C8       C      0.152270000000     0.845020000000     0.044570000000     0.698969   
C9       C      0.170450000000     0.152010000000     0.030350000000     0.705814   
C10      C      0.863340000000     0.172740000000     0.005060000000     0.663315   
C11      C      0.856290000000     0.004190000000     0.863080000000     0.570936   
C12      C      0.165710000000     0.988080000000     0.860340000000     0.644717   
C13      C      0.034540000000     0.365320000000     0.348030000000     0.648801   
C14      C      0.980330000000     0.675150000000     0.373800000000     0.609886   
C15      C      0.853110000000     0.532750000000     0.360910000000     0.641756   
C16      C      0.165530000000     0.504740000000     0.356700000000     0.643418   
C17      C      0.001360000000     0.646660000000     0.679960000000     0.559936   
C18      C      0.015720000000     0.346210000000     0.656310000000     0.575408   
C19      C      0.860050000000     0.659250000000     0.497860000000     0.566349   
C20      C      0.165830000000     0.664030000000     0.513820000000     0.626692   
C21      C      0.159970000000     0.360900000000     0.486990000000     0.628169   
C22      C      0.857580000000     0.350940000000     0.483900000000     0.647514   
C23      C      0.855970000000     0.495130000000     0.665470000000     0.559012   
C24      C      0.162510000000     0.481240000000     0.661690000000     0.585958   
C25      C      0.660760000000     0.039400000000     0.362350000000     0.633637   
C26      C      0.353500000000     0.988980000000     0.366980000000     0.641338   
C27      C      0.479300000000     0.854810000000     0.369000000000     0.616401   
C28      C      0.529530000000     0.163900000000     0.359520000000     0.634719   
C29      C      0.359500000000     0.017790000000     0.673120000000     0.574817   
C30      C      0.666180000000     0.028620000000     0.666830000000     0.56629    
C31      C      0.362120000000     0.860410000000     0.508020000000     0.593874   
C32      C      0.352830000000     0.166270000000     0.492950000000     0.635155   
C33      C      0.659650000000     0.162220000000     0.495910000000     0.593597   
C34      C      0.665160000000     0.855340000000     0.505920000000     0.613333   
C35      C      0.498790000000     0.872380000000     0.680620000000     0.56356    
C36      C      0.515420000000     0.170630000000     0.668420000000     0.566727   
C37      C      0.360400000000     0.354680000000     0.027950000000     0.614986   
C38      C      0.668200000000     0.369860000000     0.998610000000     0.654279   
C39      C      0.541940000000     0.366650000000     0.853070000000     0.639027   
C40      C      0.502880000000     0.362190000000     0.165050000000     0.630528   
C41      C      0.649600000000     0.678250000000     0.000190000000     0.585654   
C42      C      0.345270000000     0.661010000000     0.013140000000     0.545656   
C43      C      0.658560000000     0.496210000000     0.860190000000     0.618029   
C44      C      0.660520000000     0.530910000000     0.166520000000     0.627199   
C45      C      0.356900000000     0.485060000000     0.159550000000     0.551092   
C46      C      0.349960000000     0.500950000000     0.852350000000     0.625884   
C47      C      0.501930000000     0.668260000000     0.853170000000     0.584735   
C48      C      0.485790000000     0.668870000000     0.163920000000     0.543746   
C49      C      0.516600000000     0.191630000000     0.241130000000     0.0108287  
C50      C      0.553240000000     0.279990000000     0.324350000000    -0.00691434 
C51      C      0.530560000000     0.246140000000     0.189660000000     0.0103693  
C52      C      0.509690000000     0.328570000000     0.284490000000     0.0438241  
C53      C      0.456120000000     0.736690000000     0.337670000000     0.0033982  
C54      C      0.439500000000     0.826600000000     0.255090000000     0.00155694 
C55      C      0.491910000000     0.694650000000     0.284290000000    -0.00157622 
C56      C      0.478620000000     0.789090000000     0.201240000000     0.0300617  
C57      C      0.550810000000     0.772910000000     0.814380000000    -0.000840145
C58      C      0.467870000000     0.710450000000     0.740760000000    -0.00184011 
C59      C      0.516380000000     0.838250000000     0.797130000000     0.00387236 
C60      C      0.433310000000     0.777610000000     0.728900000000     0.0256269  
C61      C      0.558790000000     0.334950000000     0.733350000000     0.00671383 
C62      C      0.568460000000     0.250180000000     0.823430000000    -0.000308638
C63      C      0.509030000000     0.290470000000     0.695990000000    -0.000183905
C64      C      0.513750000000     0.209060000000     0.790600000000     0.0320681  
C65      C      0.692710000000     0.280550000000     0.496930000000     0.00427142 
C66      C      0.777920000000     0.189540000000     0.505840000000    -0.00395578 
C67      C      0.742150000000     0.321550000000     0.456160000000     0.00415642 
C68      C      0.825810000000     0.230310000000     0.463360000000     0.0378375  
C69      C      0.829970000000     0.776360000000     0.473810000000     0.00180832 
C70      C      0.744890000000     0.687170000000     0.468140000000    -0.00662356 
C71      C      0.782010000000     0.822740000000     0.509800000000     0.00482172 
C72      C      0.691190000000     0.734840000000     0.494850000000     0.0354561  
C73      C      0.278210000000     0.329270000000     0.493290000000     0.0076387  
C74      C      0.188070000000     0.243070000000     0.500460000000     0.002354   
C75      C      0.321620000000     0.279110000000     0.456410000000     0.00191772 
C76      C      0.232660000000     0.193900000000     0.463740000000     0.0330377  
C77      C      0.200420000000     0.778370000000     0.538980000000     0.00384775 
C78      C      0.279250000000     0.696180000000     0.482620000000    -0.00452836 
C79      C      0.244330000000     0.830300000000     0.505920000000     0.00697744 
C80      C      0.334860000000     0.740680000000     0.509660000000     0.0429161  
C81      C      0.772870000000     0.569680000000     0.198190000000     0.00652809 
C82      C      0.685840000000     0.553610000000     0.284880000000    -0.00329695 
C83      C      0.823200000000     0.533740000000     0.242270000000     0.00869978 
C84      C      0.733350000000     0.513420000000     0.327870000000     0.0367178  
C85      C      0.238790000000     0.466060000000     0.192210000000    -0.00276158 
C86      C      0.327530000000     0.465200000000     0.278820000000    -0.0102427  
C87      C      0.197010000000     0.512080000000     0.236980000000     0.00868366 
C88      C      0.287600000000     0.513940000000     0.321810000000     0.0358485  
C89      C      0.230830000000     0.499870000000     0.821720000000     0.00620906 
C90      C      0.319450000000     0.509680000000     0.733080000000     0.00155644 
C91      C      0.193910000000     0.450320000000     0.777140000000    -0.00281497 
C92      C      0.283190000000     0.457310000000     0.692060000000     0.0325526  
C93      C      0.776270000000     0.472950000000     0.833040000000     0.0116453  
C94      C      0.688880000000     0.457940000000     0.747120000000    -0.000985461
C95      C      0.822110000000     0.506370000000     0.782530000000    -0.0062055  
C96      C      0.735180000000     0.483960000000     0.691730000000     0.0314078  
C97      C      0.765530000000     0.713010000000     0.977250000000     0.00839365 
C98      C      0.677950000000     0.798750000000     0.997150000000    -0.00400668 
C99      C      0.811560000000     0.748840000000     0.026160000000     0.00146507 
C100     C      0.724640000000     0.834380000000     0.046360000000     0.0295143  
C101     C      0.835450000000     0.290640000000     0.978180000000     0.0130169  
C102     C      0.746760000000     0.204160000000     0.986160000000     0.00285088 
C103     C      0.787130000000     0.342170000000     0.008710000000    -0.00214492 
C104     C      0.703470000000     0.251920000000     0.025650000000     0.0372998  
C105     C      0.306170000000     0.777660000000     0.007160000000    -0.00795848 
C106     C      0.224070000000     0.684160000000     0.014330000000    -0.0126849  
C107     C      0.269060000000     0.813570000000     0.062850000000     0.0217041  
C108     C      0.185070000000     0.723680000000     0.067230000000     0.0366038  
C109     C      0.244170000000     0.317130000000     0.022970000000    -0.00202957 
C110     C      0.338100000000     0.234490000000     0.021750000000    -0.00372407 
C111     C      0.202260000000     0.266430000000     0.060570000000     0.0127865  
C112     C      0.291800000000     0.181550000000     0.052840000000     0.0378209  
C113     C      0.786150000000     0.035550000000     0.696480000000     0.00381469 
C114     C      0.699490000000     0.054550000000     0.783040000000    -0.00971088 
C115     C      0.823360000000     0.989160000000     0.744690000000    -0.00112031 
C116     C      0.733600000000     0.005550000000     0.830280000000     0.0323529  
C117     C      0.325490000000     0.025860000000     0.792680000000    -0.00884266 
C118     C      0.239850000000     0.015530000000     0.701330000000    -0.00609108 
C119     C      0.285560000000     0.975920000000     0.834770000000     0.0177356  
C120     C      0.205910000000     0.961050000000     0.741910000000     0.0353156  
C121     C      0.317940000000     0.972470000000     0.249460000000     0.00608158 
C122     C      0.237950000000     0.011950000000     0.339940000000    -0.0121679  
C123     C      0.277980000000     0.018100000000     0.203600000000     0.0166374  
C124     C      0.184300000000     0.998350000000     0.287640000000     0.0542317  
C125     C      0.687990000000     0.074530000000     0.246640000000     0.0110004  
C126     C      0.772050000000     0.083570000000     0.336070000000    -0.00604155 
C127     C      0.736600000000     0.041560000000     0.198860000000     0.00226898 
C128     C      0.827490000000     0.060270000000     0.288330000000     0.0400653  
C129     C      0.017520000000     0.309410000000     0.774220000000    -0.00510595 
C130     C      0.006060000000     0.225970000000     0.680930000000    -0.00565798 
C131     C      0.064420000000     0.262120000000     0.810080000000     0.0150841  
C132     C      0.049530000000     0.177270000000     0.721030000000     0.0319184  
C133     C      0.005960000000     0.809940000000     0.755530000000    -0.00314153 
C134     C      0.015140000000     0.727930000000     0.850330000000    -0.00925986 
C135     C      0.968870000000     0.758460000000     0.715090000000     0.00648929 
C136     C      0.988710000000     0.672500000000     0.803750000000     0.0365914  
C137     C      0.940170000000     0.715550000000     0.263640000000    -0.000377536
C138     C      0.981000000000     0.796480000000     0.348970000000    -0.00312582 
C139     C      0.989360000000     0.743350000000     0.212580000000     0.0148706  
C140     C      0.031850000000     0.822820000000     0.298130000000     0.0323809  
C141     C      0.082740000000     0.204090000000     0.268510000000     0.0119218  
C142     C      0.067080000000     0.287750000000     0.178910000000     0.00775489 
C143     C      0.044400000000     0.247890000000     0.317700000000     0.00347298 
C144     C      0.026040000000     0.332020000000     0.225690000000     0.0307899  
H1       H      0.958410000000     0.967590000000     0.068080000000    -1.28224    
H2       H      0.050600000000     0.048250000000     0.052240000000    -1.05393    
H3       H      0.957980000000     0.119770000000     0.944910000000    -0.498561   
H4       H      0.117050000000     0.936020000000     0.962410000000    -0.536464   
H5       H      0.971210000000     0.550380000000     0.472360000000    -0.843996   
H6       H      0.048330000000     0.473260000000     0.465340000000    -1.43883    
H7       H      0.948970000000     0.392120000000     0.560990000000    -0.377934   
H8       H      0.120320000000     0.564470000000     0.575660000000    -0.355338   
H9       H      0.471110000000     0.972430000000     0.476130000000    -0.95443    
H10      H      0.548210000000     0.050890000000     0.472380000000    -1.31316    
H11      H      0.622010000000     0.953140000000     0.576260000000    -0.302637   
H12      H      0.448130000000     0.127750000000     0.571560000000    -0.271349   
H13      H      0.547300000000     0.476310000000     0.969770000000    -0.537879   
H14      H      0.469060000000     0.471560000000     0.048570000000    -1.74418    
H15      H      0.392960000000     0.567360000000     0.947690000000    -0.195385   
H16      H      0.559910000000     0.578870000000     0.119580000000    -0.234958   
H17      H      0.584750000000     0.247170000000     0.179310000000     0.0200539  
H18      H      0.543520000000     0.145850000000     0.225800000000     0.0273218  
H19      H      0.528440000000     0.379720000000     0.293700000000     0.0295148  
H20      H      0.605690000000     0.287700000000     0.309040000000     0.0289783  
H21      H      0.505500000000     0.231940000000     0.142170000000     0.0302061  
H22      H      0.462830000000     0.179300000000     0.239970000000     0.0218346  
H23      H      0.550540000000     0.292130000000     0.378570000000     0.0436022  
H24      H      0.391350000000     0.276940000000     0.283000000000     0.0306525  
H25      H      0.546170000000     0.698180000000     0.293600000000     0.0313609  
H26      H      0.476320000000     0.724330000000     0.387860000000     0.0350714  
H27      H      0.530720000000     0.807120000000     0.203070000000     0.0232786  
H28      H      0.443810000000     0.880770000000     0.245510000000     0.0410628  
H29      H      0.477670000000     0.641990000000     0.293010000000     0.0389543  
H30      H      0.402740000000     0.722720000000     0.337510000000     0.0275071  
H31      H      0.386060000000     0.813450000000     0.250280000000     0.030192   
H32      H      0.494840000000     0.830760000000     0.079030000000     0.0278593  
H33      H      0.478720000000     0.849170000000     0.836310000000     0.0351719  
H34      H      0.571010000000     0.775770000000     0.866120000000     0.0401498  
H35      H      0.400540000000     0.783520000000     0.773410000000     0.0284422  
H36      H      0.430360000000     0.669940000000     0.743020000000     0.038348   
H37      H      0.553790000000     0.878940000000     0.797220000000     0.0386495  
H38      H      0.593900000000     0.767140000000     0.780120000000     0.0324304  
H39      H      0.502500000000     0.700530000000     0.698650000000     0.0383534  
H40      H      0.316150000000     0.811780000000     0.681040000000     0.0150617  
H41      H      0.458170000000     0.307870000000     0.708510000000     0.0293486  
H42      H      0.547550000000     0.387820000000     0.722190000000     0.0368807  
H43      H      0.465810000000     0.228970000000     0.809620000000     0.0204027  
H44      H      0.568820000000     0.241640000000     0.878350000000     0.0416586  
H45      H      0.516160000000     0.298210000000     0.641410000000     0.0361527  
H46      H      0.608990000000     0.323780000000     0.713290000000     0.0274403  
H47      H      0.617220000000     0.233480000000     0.803430000000     0.0339746  
H48      H      0.459960000000     0.108520000000     0.851950000000     0.018305   
H49      H      0.732690000000     0.311720000000     0.402200000000     0.0260136  
H50      H      0.641960000000     0.291340000000     0.478120000000     0.0381132  
H51      H      0.816860000000     0.216940000000     0.410190000000     0.0209241  
H52      H      0.786860000000     0.136020000000     0.495340000000     0.0439362  
H53      H      0.731820000000     0.375010000000     0.464890000000     0.0353089  
H54      H      0.695100000000     0.296900000000     0.550010000000     0.0323927  
H55      H      0.789260000000     0.198080000000     0.559710000000     0.0357465  
H56      H      0.944730000000     0.193700000000     0.426920000000     0.0197339  
H57      H      0.791600000000     0.819360000000     0.564520000000     0.0308241  
H58      H      0.881270000000     0.788620000000     0.489930000000     0.0418244  
H59      H      0.678510000000     0.719170000000     0.546700000000     0.0275718  
H60      H      0.732490000000     0.636870000000     0.487140000000     0.0454982  
H61      H      0.793790000000     0.874490000000     0.494340000000     0.0365036  
H62      H      0.826590000000     0.786150000000     0.419100000000     0.0299672  
H63      H      0.742930000000     0.684910000000     0.412450000000     0.0332146  
H64      H      0.567170000000     0.700180000000     0.482870000000     0.0217281  
H65      H      0.312720000000     0.285250000000     0.401840000000     0.0294392  
H66      H      0.289200000000     0.379580000000     0.473530000000     0.0398773  
H67      H      0.222890000000     0.199810000000     0.409220000000     0.0204454  
H68      H      0.135870000000     0.232780000000     0.485680000000     0.0412209  
H69      H      0.374360000000     0.291650000000     0.466330000000     0.0383103  
H70      H      0.291910000000     0.328120000000     0.547160000000     0.0314836  
H71      H      0.192090000000     0.234190000000     0.555320000000     0.0340208  
H72      H      0.152260000000     0.094320000000     0.445830000000     0.00867529 
H73      H      0.230030000000     0.835260000000     0.452410000000     0.0287525  
H74      H      0.147760000000     0.792950000000     0.531450000000     0.0343904  
H75      H      0.378210000000     0.733530000000     0.475980000000     0.0317814  
H76      H      0.275390000000     0.704100000000     0.427650000000     0.0296215  
H77      H      0.234570000000     0.878940000000     0.530500000000     0.0356104  
H78      H      0.209810000000     0.778510000000     0.593830000000     0.0317853  
H79      H      0.293320000000     0.643190000000     0.489470000000     0.04149    
H80      H      0.318850000000     0.665350000000     0.617320000000     0.0296478  
H81      H      0.827050000000     0.481360000000     0.224870000000     0.0221726  
H82      H      0.786010000000     0.561270000000     0.144830000000     0.0358189  
H83      H      0.728100000000     0.460290000000     0.313340000000     0.021525   
H84      H      0.634210000000     0.536580000000     0.294300000000     0.0396665  
H85      H      0.872210000000     0.557460000000     0.233720000000     0.0306921  
H86      H      0.776790000000     0.623930000000     0.208180000000     0.0286763  
H87      H      0.688950000000     0.606830000000     0.299880000000     0.0327669  
H88      H      0.657200000000     0.471620000000     0.424290000000     0.0116151  
H89      H      0.206360000000     0.564210000000     0.221020000000     0.0244153  
H90      H      0.227360000000     0.476970000000     0.138920000000     0.0399044  
H91      H      0.301680000000     0.564900000000     0.305440000000     0.0241536  
H92      H      0.381390000000     0.472320000000     0.288200000000     0.0469412  
H93      H      0.144000000000     0.501830000000     0.227130000000     0.0325736  
H94      H      0.223530000000     0.413880000000     0.202280000000     0.03009    
H95      H      0.314080000000     0.413970000000     0.294660000000     0.0348564  
H96      H      0.359920000000     0.556350000000     0.420770000000     0.0123059  
H97      H      0.210210000000     0.399340000000     0.791090000000     0.0306065  
H98      H      0.221910000000     0.486380000000     0.874900000000     0.0377522  
H99      H      0.300410000000     0.407940000000     0.710280000000     0.0244157  
H100     H      0.373640000000     0.505560000000     0.723680000000     0.0392178  
H101     H      0.140000000000     0.453540000000     0.788020000000     0.0416482  
H102     H      0.209380000000     0.550080000000     0.813240000000     0.034488   
H103     H      0.303240000000     0.559820000000     0.716200000000     0.0348881  
H104     H      0.365770000000     0.424580000000     0.597620000000     0.0118531  
H105     H      0.817590000000     0.561150000000     0.788450000000     0.0335329  
H106     H      0.787480000000     0.493350000000     0.883490000000     0.0372121  
H107     H      0.718060000000     0.534530000000     0.677420000000     0.0268393  
H108     H      0.637120000000     0.470810000000     0.733140000000     0.0432923  
H109     H      0.873910000000     0.492930000000     0.795920000000     0.0414108  
H110     H      0.787580000000     0.418830000000     0.833960000000     0.0281987  
H111     H      0.692040000000     0.402760000000     0.749150000000     0.0303017  
H112     H      0.698920000000     0.466450000000     0.567630000000     0.0190613  
H113     H      0.804660000000     0.726690000000     0.076730000000     0.0293375  
H114     H      0.777050000000     0.659030000000     0.978160000000     0.0363001  
H115     H      0.715220000000     0.812050000000     0.096440000000     0.0241003  
H116     H      0.625710000000     0.806220000000     0.013310000000     0.0392024  
H117     H      0.863360000000     0.738480000000     0.010390000000     0.0391834  
H118     H      0.776600000000     0.731390000000     0.925940000000     0.0304294  
H119     H      0.683880000000     0.821540000000     0.946760000000     0.0355655  
H120     H      0.655950000000     0.926580000000     0.105410000000     0.0111698  
H121     H      0.799890000000     0.348520000000     0.062500000000     0.0281254  
H122     H      0.886650000000     0.302550000000     0.994950000000     0.0300939  
H123     H      0.718390000000     0.247830000000     0.079140000000     0.0190191  
H124     H      0.735520000000     0.152610000000     0.002590000000     0.04016    
H125     H      0.795940000000     0.390740000000     0.983630000000     0.0382714  
H126     H      0.834240000000     0.296210000000     0.922800000000     0.0275349  
H127     H      0.733800000000     0.208000000000     0.932120000000     0.0337906  
H128     H      0.610380000000     0.173440000000     0.069290000000     0.00821204 
H129     H      0.289200000000     0.796410000000     0.111760000000     0.0266866  
H130     H      0.359420000000     0.791120000000     0.008990000000     0.0425369  
H131     H      0.205230000000     0.708740000000     0.116870000000     0.0237683  
H132     H      0.218740000000     0.630170000000     0.024830000000     0.0419403  
H133     H      0.279530000000     0.867630000000     0.059420000000     0.0315859  
H134     H      0.286540000000     0.795370000000     0.958260000000     0.0375927  
H135     H      0.201840000000     0.694000000000     0.964330000000     0.0380872  
H136     H      0.090840000000     0.649000000000     0.114350000000     0.0103359  
H137     H      0.211660000000     0.273220000000     0.114990000000     0.0222287  
H138     H      0.230700000000     0.367530000000     0.041390000000     0.037927   
H139     H      0.300930000000     0.181630000000     0.107760000000     0.0195662  
H140     H      0.388630000000     0.227100000000     0.042890000000     0.0351411  
H141     H      0.149360000000     0.278500000000     0.051380000000     0.0378378  
H142     H      0.231550000000     0.314650000000     0.968830000000     0.0322484  
H143     H      0.341840000000     0.225740000000     0.966840000000     0.0248239  
H144     H      0.310600000000     0.099230000000     0.953930000000     0.0170454  
H145     H      0.808600000000     0.937200000000     0.732920000000     0.033384   
H146     H      0.795190000000     0.018770000000     0.644280000000     0.0370039  
H147     H      0.712650000000     0.955390000000     0.820200000000     0.0304791  
H148     H      0.645370000000     0.054720000000     0.793120000000     0.0466882  
H149     H      0.877240000000     0.993340000000     0.733940000000     0.0413322  
H150     H      0.807280000000     0.086340000000     0.701730000000     0.0325734  
H151     H      0.718420000000     0.105450000000     0.793700000000     0.0363282  
H152     H      0.645270000000     0.005090000000     0.925160000000     0.0139587  
H153     H      0.306780000000     0.925600000000     0.826140000000     0.0273344  
H154     H      0.379040000000     0.019350000000     0.803910000000     0.0416884  
H155     H      0.232810000000     0.914020000000     0.730590000000     0.0243827  
H156     H      0.232530000000     0.005460000000     0.647130000000     0.0405379  
H157     H      0.293110000000     0.987810000000     0.888500000000     0.0312015  
H158     H      0.311280000000     0.076830000000     0.808700000000     0.0320058  
H159     H      0.215850000000     0.063960000000     0.713030000000     0.037383   
H160     H      0.122930000000     0.897620000000     0.665670000000     0.0158162  
H161     H      0.295000000000     0.070160000000     0.210890000000     0.0207173  
H162     H      0.371270000000     0.977960000000     0.236820000000     0.0298228  
H163     H      0.140650000000     0.029350000000     0.301360000000     0.0216657  
H164     H      0.241580000000     0.066670000000     0.346990000000     0.0310178  
H165     H      0.288910000000     0.004420000000     0.150850000000     0.0329793  
H166     H      0.304040000000     0.920050000000     0.238930000000     0.0277471  
H167     H      0.222320000000     0.990850000000     0.388980000000     0.0420114  
H168     H      0.197980000000     0.875980000000     0.333280000000     0.0191434  
H169     H      0.726710000000     0.987190000000     0.198580000000     0.0258507  
H170     H      0.637130000000     0.057540000000     0.233820000000     0.0313273  
H171     H      0.845520000000     0.011210000000     0.306460000000     0.0209972  
H172     H      0.785450000000     0.068390000000     0.387820000000     0.0433001  
H173     H      0.725840000000     0.060270000000     0.147580000000     0.0365517  
H174     H      0.689980000000     0.129230000000     0.238640000000     0.0260794  
H175     H      0.769470000000     0.138800000000     0.335960000000     0.0290597  
H176     H      0.949900000000     0.086330000000     0.321670000000     0.00923498 
H177     H      0.115670000000     0.272130000000     0.792040000000     0.0267597  
H178     H      0.033170000000     0.361060000000     0.786020000000     0.0417695  
H179     H      0.101610000000     0.184980000000     0.704330000000     0.0254112  
H180     H      0.015890000000     0.218720000000     0.626620000000     0.0392562  
H181     H      0.063640000000     0.273890000000     0.864380000000     0.031887   
H182     H      0.966660000000     0.302200000000     0.794490000000     0.0376414  
H183     H      0.952980000000     0.213720000000     0.689920000000     0.0377501  
H184     H      0.063420000000     0.076890000000     0.640690000000     0.0165     
H185     H      0.915250000000     0.761960000000     0.727770000000     0.0305386  
H186     H      0.986030000000     0.859690000000     0.741980000000     0.0413009  
H187     H      0.935510000000     0.664820000000     0.816270000000     0.0242695  
H188     H      0.995480000000     0.718700000000     0.901540000000     0.0432109  
H189     H      0.973840000000     0.771670000000     0.661340000000     0.0376819  
H190     H      0.059260000000     0.808320000000     0.741380000000     0.0371164  
H191     H      0.070140000000     0.724270000000     0.853750000000     0.0371541  
H192     H      0.987850000000     0.546810000000     0.835450000000     0.0312235  
H193     H      0.035240000000     0.712740000000     0.214450000000     0.0223177  
H194     H      0.930620000000     0.662340000000     0.252670000000     0.0376001  
H195     H      0.076140000000     0.790270000000     0.303880000000     0.0208061  
H196     H      0.000990000000     0.801710000000     0.400550000000     0.037083   
H197     H      0.967020000000     0.737210000000     0.162100000000     0.0343048  
H198     H      0.892420000000     0.742580000000     0.257640000000     0.0266146  
H199     H      0.935140000000     0.826970000000     0.345190000000     0.0304947  
H200     H      0.054360000000     0.916970000000     0.386570000000     0.00783273 
H201     H      0.992720000000     0.229130000000     0.320750000000     0.0307529  
H202     H      0.076120000000     0.151120000000     0.282770000000     0.0336046  
H203     H      0.973100000000     0.318710000000     0.217680000000     0.0207613  
H204     H      0.050530000000     0.295760000000     0.126440000000     0.035375   
H205     H      0.067540000000     0.240910000000     0.367770000000     0.0400592  
H206     H      0.136410000000     0.215920000000     0.273470000000     0.0212194  
H207     H      0.119840000000     0.303370000000     0.182690000000     0.0252221  
H208     H      0.975650000000     0.448210000000     0.199920000000     0.00632673 
N1       N      0.509910000000     0.313060000000     0.212210000000    -0.216603   
N2       N      0.535080000000     0.210470000000     0.309890000000    -0.21219    
N3       N      0.478930000000     0.715980000000     0.214040000000    -0.193041   
N4       N      0.461910000000     0.807660000000     0.322390000000    -0.210754   
N5       N      0.483680000000     0.830540000000     0.732000000000    -0.199282   
N6       N      0.505980000000     0.715540000000     0.804360000000    -0.200247   
N7       N      0.515420000000     0.219890000000     0.716440000000    -0.198366   
N8       N      0.557910000000     0.320150000000     0.805610000000    -0.214801   
N9       N      0.811160000000     0.302450000000     0.471820000000    -0.213854   
N10      N      0.708610000000     0.209180000000     0.493820000000    -0.204512   
N11      N      0.711700000000     0.805980000000     0.497470000000    -0.208539   
N12      N      0.812470000000     0.706730000000     0.486570000000    -0.199911   
N13      N      0.303780000000     0.210690000000     0.475920000000    -0.211382   
N14      N      0.207480000000     0.312380000000     0.486950000000    -0.210948   
N15      N      0.314930000000     0.811740000000     0.509770000000    -0.210402   
N16      N      0.214110000000     0.711460000000     0.512750000000    -0.208934   
N17      N      0.803500000000     0.533660000000     0.313800000000    -0.216062   
N18      N      0.705470000000     0.547460000000     0.214620000000    -0.209479   
N19      N      0.215050000000     0.505430000000     0.308670000000    -0.215628   
N20      N      0.309810000000     0.473290000000     0.207860000000    -0.19604    
N21      N      0.210880000000     0.462870000000     0.706390000000    -0.201802   
N22      N      0.302000000000     0.501490000000     0.804200000000    -0.209503   
N23      N      0.806230000000     0.489030000000     0.712370000000    -0.195485   
N24      N      0.706690000000     0.482450000000     0.813720000000    -0.21179    
N25      N      0.795430000000     0.820590000000     0.029030000000    -0.204861   
N26      N      0.695720000000     0.727850000000     0.993070000000    -0.200064   
N27      N      0.716710000000     0.321750000000     0.003860000000    -0.217978   
N28      N      0.816940000000     0.221700000000     0.994940000000    -0.215091   
N29      N      0.197990000000     0.796140000000     0.058550000000    -0.224958   
N30      N      0.294110000000     0.705720000000     0.013020000000    -0.191455   
N31      N      0.220410000000     0.197730000000     0.041920000000    -0.229614   
N32      N      0.315330000000     0.303560000000     0.031340000000    -0.2088     
N33      N      0.806490000000     0.002980000000     0.815610000000    -0.199221   
N34      N      0.715150000000     0.037710000000     0.713450000000    -0.196459   
N35      N      0.215020000000     0.975870000000     0.814180000000    -0.2145     
N36      N      0.310530000000     0.018660000000     0.720670000000    -0.197032   
N37      N      0.206570000000     0.014470000000     0.219000000000    -0.23998    
N38      N      0.303980000000     0.987080000000     0.320370000000    -0.213335   
N39      N      0.806940000000     0.052200000000     0.217040000000    -0.221291   
N40      N      0.706550000000     0.059460000000     0.315890000000    -0.214268   
N41      N      0.046460000000     0.192820000000     0.794130000000    -0.213266   
N42      N      0.017040000000     0.295320000000     0.701770000000    -0.197409   
N43      N      0.992750000000     0.691160000000     0.731550000000    -0.197113   
N44      N      0.999580000000     0.795740000000     0.827360000000    -0.196712   
N45      N      0.006120000000     0.813210000000     0.228950000000    -0.222526   
N46      N      0.965450000000     0.726840000000     0.331750000000    -0.209324   
N47      N      0.042240000000     0.318960000000     0.297580000000    -0.216489   
N48      N      0.061780000000     0.217960000000     0.199600000000    -0.232249   
O1       O      0.036030000000     0.184660000000     0.091360000000    -1.03501    
O2       O      0.001700000000     0.837920000000     0.115920000000    -0.81611    
O3       O      0.917200000000     0.030720000000     0.188110000000    -1.04124    
O4       O      0.096610000000     0.020630000000     0.187740000000    -1.08716    
O5       O      0.180250000000     0.017340000000     0.105640000000    -1.05623    
O6       O      0.834420000000     0.034810000000     0.104560000000    -0.788856   
O7       O      0.004250000000     0.925710000000     0.194300000000    -0.976809   
O8       O      0.035640000000     0.106950000000     0.179540000000    -1.07882    
O9       O      0.075160000000     0.945140000000     0.091370000000    -2.12825    
O10      O      0.950190000000     0.090150000000     0.081070000000    -2.06351    
O11      O      0.932110000000     0.946710000000     0.095360000000    -0.875663   
O12      O      0.023710000000     0.022620000000     0.027640000000    -2.57302    
O13      O      0.996870000000     0.832060000000     0.938350000000    -0.735588   
O14      O      0.032210000000     0.172480000000     0.908790000000    -0.908046   
O15      O      0.831350000000     0.931950000000     0.021190000000    -0.731321   
O16      O      0.174980000000     0.907160000000     0.034920000000    -0.960546   
O17      O      0.184780000000     0.087190000000     0.030270000000    -1.06029    
O18      O      0.841540000000     0.110200000000     0.013000000000    -0.774461   
O19      O      0.920400000000     0.002630000000     0.842430000000    -0.571183   
O20      O      0.102300000000     0.991890000000     0.840280000000    -0.615227   
O21      O      0.838900000000     0.007640000000     0.927810000000    -0.728232   
O22      O      0.183270000000     0.992900000000     0.925190000000    -0.950652   
O23      O      0.909020000000     0.843210000000     0.025020000000    -0.759038   
O24      O      0.928370000000     0.188310000000     0.002280000000    -0.916804   
O25      O      0.108710000000     0.174870000000     0.021260000000    -1.02631    
O26      O      0.087550000000     0.830130000000     0.041780000000    -0.771374   
O27      O      0.003060000000     0.909380000000     0.848190000000    -0.599505   
O28      O      0.025710000000     0.084410000000     0.831650000000    -0.630743   
O29      O      0.085490000000     0.069890000000     0.946790000000    -1.97895    
O30      O      0.944850000000     0.947860000000     0.956750000000    -1.60768    
O31      O      0.941880000000     0.076790000000     0.936540000000    -1.23887    
O32      O      0.073660000000     0.925960000000     0.948930000000    -1.26023    
O33      O      0.028330000000     0.343000000000     0.410530000000    -0.881876   
O34      O      0.994230000000     0.689110000000     0.437390000000    -0.797882   
O35      O      0.916220000000     0.535920000000     0.340440000000    -0.922111   
O36      O      0.102220000000     0.507420000000     0.336740000000    -0.930587   
O37      O      0.182050000000     0.503400000000     0.421020000000    -0.85685    
O38      O      0.836700000000     0.525240000000     0.424440000000    -0.826498   
O39      O      0.980040000000     0.613310000000     0.349230000000    -0.930393   
O40      O      0.031650000000     0.429880000000     0.333060000000    -0.935463   
O41      O      0.078800000000     0.586230000000     0.437680000000    -1.68625    
O42      O      0.940860000000     0.443740000000     0.426650000000    -1.70763    
O43      O      0.997980000000     0.522050000000     0.495130000000    -1.69248    
O44      O      0.021580000000     0.497680000000     0.492230000000    -0.357694   
O45      O      0.006410000000     0.670660000000     0.617110000000    -0.715623   
O46      O      0.012590000000     0.331700000000     0.590250000000    -0.751058   
O47      O      0.841370000000     0.595340000000     0.497580000000    -0.763349   
O48      O      0.183430000000     0.601000000000     0.503900000000    -0.830825   
O49      O      0.179060000000     0.424530000000     0.490390000000    -0.817247   
O50      O      0.837670000000     0.413310000000     0.496130000000    -0.765112   
O51      O      0.919590000000     0.495640000000     0.686080000000    -0.562398   
O52      O      0.099220000000     0.484200000000     0.683010000000    -0.566867   
O53      O      0.838870000000     0.499010000000     0.600610000000    -0.728585   
O54      O      0.180020000000     0.494240000000     0.598380000000    -0.764954   
O55      O      0.922740000000     0.679080000000     0.506480000000    -0.761047   
O56      O      0.921350000000     0.334970000000     0.481950000000    -0.862196   
O57      O      0.096680000000     0.341440000000     0.488080000000    -0.859729   
O58      O      0.102950000000     0.682010000000     0.525230000000    -0.773291   
O59      O      0.002540000000     0.581640000000     0.693740000000    -0.588612   
O60      O      0.014720000000     0.408380000000     0.680150000000    -0.584281   
O61      O      0.076630000000     0.437600000000     0.566730000000    -1.63446    
O62      O      0.941350000000     0.570620000000     0.578210000000    -1.44824    
O63      O      0.933760000000     0.432090000000     0.579180000000    -1.18512    
O64      O      0.079280000000     0.579060000000     0.591730000000    -1.16027    
O65      O      0.680460000000     0.030740000000     0.425410000000    -0.826755   
O66      O      0.336270000000     0.997380000000     0.430590000000    -0.861298   
O67      O      0.483730000000     0.917450000000     0.348100000000    -0.968885   
O68      O      0.523620000000     0.100220000000     0.341430000000    -0.944855   
O69      O      0.527770000000     0.184170000000     0.422930000000    -0.811492   
O70      O      0.489650000000     0.836890000000     0.432670000000    -0.779941   
O71      O      0.416350000000     0.986580000000     0.346400000000    -0.948394   
O72      O      0.598060000000     0.032070000000     0.342830000000    -0.97653    
O73      O      0.439530000000     0.080770000000     0.435970000000    -1.71689    
O74      O      0.579060000000     0.939350000000     0.438390000000    -1.68791    
O75      O      0.497910000000     0.999780000000     0.500100000000    -1.5813     
O76      O      0.521930000000     0.025410000000     0.498640000000    -0.484917   
O77      O      0.340910000000     0.018770000000     0.608530000000    -0.762736   
O78      O      0.683840000000     0.020090000000     0.602490000000    -0.733835   
O79      O      0.425350000000     0.841350000000     0.509040000000    -0.784287   
O80      O      0.416400000000     0.186070000000     0.492550000000    -0.766603   
O81      O      0.596440000000     0.182590000000     0.497800000000    -0.766631   
O82      O      0.602420000000     0.838130000000     0.518290000000    -0.793278   
O83      O      0.508930000000     0.935850000000     0.696890000000    -0.619414   
O84      O      0.516760000000     0.107430000000     0.688340000000    -0.610636   
O85      O      0.500400000000     0.848840000000     0.617080000000    -0.687455   
O86      O      0.511310000000     0.187890000000     0.603020000000    -0.707884   
O87      O      0.342410000000     0.924090000000     0.507320000000    -0.804671   
O88      O      0.683880000000     0.919150000000     0.501950000000    -0.778035   
O89      O      0.678210000000     0.098420000000     0.499210000000    -0.776658   
O90      O      0.336310000000     0.103930000000     0.506660000000    -0.820921   
O91      O      0.423380000000     0.017950000000     0.692700000000    -0.589124   
O92      O      0.602720000000     0.028400000000     0.687660000000    -0.593126   
O93      O      0.578040000000     0.082720000000     0.573820000000    -1.54132    
O94      O      0.444030000000     0.948580000000     0.581610000000    -1.51289    
O95      O      0.580890000000     0.939020000000     0.592640000000    -1.19527    
O96      O      0.434580000000     0.086450000000     0.588370000000    -1.24703    
O97      O      0.338100000000     0.416720000000     0.020820000000    -0.728104   
O98      O      0.684610000000     0.433900000000     0.005590000000    -0.877248   
O99      O      0.540560000000     0.347850000000     0.917150000000    -0.963145   
O100     O      0.500940000000     0.343820000000     0.101020000000    -0.94884    
O101     O      0.502860000000     0.425750000000     0.184410000000    -0.740565   
O102     O      0.528410000000     0.428300000000     0.833360000000    -0.907022   
O103     O      0.606050000000     0.350680000000     0.989280000000    -0.978328   
O104     O      0.424780000000     0.339590000000     0.028360000000    -0.942655   
O105     O      0.580110000000     0.442490000000     0.080810000000    -1.69794    
O106     O      0.440240000000     0.433120000000     0.937580000000    -1.69149    
O107     O      0.519400000000     0.500110000000     0.996180000000    -3.15282    
O108     O      0.494120000000     0.498030000000     0.022000000000     1.07934    
O109     O      0.671390000000     0.615000000000     0.002130000000    -0.79591    
O110     O      0.330320000000     0.595700000000     0.013460000000    -0.657155   
O111     O      0.595450000000     0.500780000000     0.839400000000    -0.863805   
O112     O      0.597670000000     0.520090000000     0.184950000000    -0.735935   
O113     O      0.420080000000     0.492020000000     0.179060000000    -0.715471   
O114     O      0.413390000000     0.506240000000     0.833670000000    -0.86116    
O115     O      0.505590000000     0.688260000000     0.917430000000    -0.604383   
O116     O      0.490610000000     0.688350000000     0.099520000000    -0.590262   
O117     O      0.496040000000     0.604340000000     0.834500000000    -0.801439   
O118     O      0.490330000000     0.604460000000     0.182180000000    -0.669328   
O119     O      0.677040000000     0.502080000000     0.924050000000    -0.894672   
O120     O      0.331520000000     0.498690000000     0.916470000000    -0.722508   
O121     O      0.337260000000     0.489460000000     0.095640000000    -0.689809   
O122     O      0.679070000000     0.533310000000     0.102480000000    -0.854421   
O123     O      0.585120000000     0.694900000000     0.004690000000    -0.607951   
O124     O      0.407760000000     0.684280000000     0.010230000000    -0.606692   
O125     O      0.434990000000     0.572950000000     0.076240000000    -1.43848    
O126     O      0.570280000000     0.580060000000     0.940220000000    -1.60565    
O127     O      0.432750000000     0.584690000000     0.931600000000    -1.27974    
O128     O      0.577140000000     0.593850000000     0.079070000000    -1.2622     
S1       S      0.426700000000     0.325640000000     0.315030000000    -0.039489   
S2       S      0.444580000000     0.814290000000     0.122140000000    -0.0183851  
S3       S      0.375770000000     0.786730000000     0.659870000000     0.0237971  
S4       S      0.518610000000     0.125350000000     0.821740000000    -0.00430733 
S5       S      0.908140000000     0.202060000000     0.483960000000    -0.0051349  
S6       S      0.618770000000     0.721500000000     0.443730000000    -0.016512   
S7       S      0.204860000000     0.111700000000     0.485600000000    -0.000554899
S8       S      0.361360000000     0.711890000000     0.591380000000    -0.035267   
S9       S      0.704140000000     0.519520000000     0.412730000000    -0.00142013 
S10      S      0.315540000000     0.506660000000     0.406890000000     0.0070929  
S11      S      0.309820000000     0.462240000000     0.606390000000     0.00279392 
S12      S      0.722110000000     0.430200000000     0.620760000000    -0.00127612 
S13      S      0.700390000000     0.919790000000     0.053970000000    -0.00496809 
S14      S      0.619420000000     0.221910000000     0.021970000000    -0.0267566  
S15      S      0.100040000000     0.697270000000     0.066850000000    -0.000952617
S16      S      0.318940000000     0.102030000000     0.021980000000    -0.0116457  
S17      S      0.708340000000     0.027780000000     0.913680000000     0.00531469 
S18      S      0.122960000000     0.947200000000     0.712720000000    -0.00478018 
S19      S      0.158590000000     0.913050000000     0.291650000000    -0.0101585  
S20      S      0.895040000000     0.118160000000     0.296910000000    -0.00786083 
S21      S      0.027330000000     0.094500000000     0.696060000000    -0.00562179 
S22      S      0.032240000000     0.597590000000     0.826370000000    -0.0175128  
S23      S      0.060500000000     0.904700000000     0.319360000000     0.00118992 
S24      S      0.035570000000     0.416140000000     0.197280000000    -0.0201411  
Tb1      Tb     0.006990000000     0.014950000000     0.128050000000     6.39834    
Tb2      Tb     0.003420000000     0.897690000000     0.026510000000     4.47265    
Tb3      Tb     0.015610000000     0.121060000000     0.005300000000     6.09391    
Tb4      Tb     0.898670000000     0.018270000000     0.018260000000     4.33211    
Tb5      Tb     0.121200000000     0.000000000000     0.015600000000     6.35308    
Tb6      Tb     0.013230000000     0.003210000000     0.902430000000     3.14287    
Tb7      Tb     0.009500000000     0.517980000000     0.394260000000     5.26652    
Tb8      Tb     0.013130000000     0.620410000000     0.518960000000     4.17081    
Tb9      Tb     0.005990000000     0.397790000000     0.501210000000     4.92078    
Tb10     Tb     0.898640000000     0.503540000000     0.508800000000     4.20883    
Tb11     Tb     0.120080000000     0.514070000000     0.509430000000     4.7281     
Tb12     Tb     0.009090000000     0.499800000000     0.623300000000     2.87729    
Tb13     Tb     0.508550000000     0.009200000000     0.399830000000     5.50516    
Tb14     Tb     0.399060000000     0.016840000000     0.515690000000     4.50925    
Tb15     Tb     0.620970000000     0.007780000000     0.513290000000     4.43434    
Tb16     Tb     0.514000000000     0.900780000000     0.518920000000     4.19626    
Tb17     Tb     0.505280000000     0.125150000000     0.511220000000     4.34358    
Tb18     Tb     0.511810000000     0.018060000000     0.628270000000     3.09539    
Tb19     Tb     0.512540000000     0.400510000000     0.008970000000     5.44383    
Tb20     Tb     0.617830000000     0.520060000000     0.013230000000     4.86396    
Tb21     Tb     0.394880000000     0.507650000000     0.004220000000     3.77476    
Tb22     Tb     0.502600000000     0.512940000000     0.895670000000     4.93599    
Tb23     Tb     0.509710000000     0.514790000000     0.121540000000     3.92292    
Tb24     Tb     0.500130000000     0.627110000000     0.008200000000     3.14606    


