data_structure

_audit_creation_method RASPA-1.0
_audit_creation_date 2023-5-19
_audit_author_name 'Poobodin Mano'

_cell_length_a    20.1217
_cell_length_b    20.2653
_cell_length_c    20.1863
_cell_angle_alpha 90
_cell_angle_beta  90
_cell_angle_gamma 90
_cell_volume      8231.41

_symmetry_cell_setting          triclinic
_symmetry_space_group_name_Hall 'P 1'
_symmetry_space_group_name_H-M  'P 1'
_symmetry_Int_Tables_number     1

_symmetry_equiv_pos_as_xyz 'x,y,z'

loop_
_atom_site_label
_atom_site_type_symbol
_atom_site_fract_x
_atom_site_fract_y
_atom_site_fract_z
_atom_site_charge
C1       C      0.032530000000     0.152500000000     0.165480000000     0.710567   
C2       C      0.022600000000     0.846400000000     0.156630000000     0.681618   
C3       C      0.851280000000     0.001990000000     0.163450000000     0.661529   
C4       C      0.161230000000     0.028520000000     0.158410000000     0.717112   
C5       C      0.002140000000     0.856720000000     0.853850000000     0.560815   
C6       C      0.007610000000     0.163540000000     0.858450000000     0.655705   
C7       C      0.855000000000     0.854070000000     0.001370000000     0.578719   
C8       C      0.160350000000     0.849450000000     0.018890000000     0.692405   
C9       C      0.162470000000     0.156920000000     0.026690000000     0.698922   
C10      C      0.854010000000     0.158450000000     0.033120000000     0.688482   
C11      C      0.853890000000     0.012290000000     0.860180000000     0.569871   
C12      C      0.161240000000     0.017540000000     0.851290000000     0.634577   
C13      C      0.026430000000     0.350160000000     0.358980000000     0.726122   
C14      C      0.019290000000     0.659420000000     0.353580000000     0.686275   
C15      C      0.863820000000     0.490870000000     0.343180000000     0.702195   
C16      C      0.164500000000     0.489340000000     0.361620000000     0.755646   
C17      C      0.993990000000     0.661590000000     0.655590000000     0.554436   
C18      C      0.011790000000     0.355810000000     0.665680000000     0.644005   
C19      C      0.854960000000     0.659480000000     0.491260000000     0.593177   
C20      C      0.162580000000     0.657530000000     0.502910000000     0.709943   
C21      C      0.156870000000     0.353640000000     0.495400000000     0.735936   
C22      C      0.841690000000     0.357380000000     0.498520000000     0.646484   
C23      C      0.847270000000     0.519630000000     0.652710000000     0.56788    
C24      C      0.153620000000     0.501250000000     0.670420000000     0.653671   
C25      C      0.661180000000     0.022800000000     0.359850000000     0.740218   
C26      C      0.349180000000     0.009700000000     0.354420000000     0.670079   
C27      C      0.504470000000     0.852560000000     0.351580000000     0.683479   
C28      C      0.523280000000     0.159990000000     0.360390000000     0.71514    
C29      C      0.353860000000     0.991500000000     0.660410000000     0.568831   
C30      C      0.660310000000     0.011080000000     0.664150000000     0.656931   
C31      C      0.353590000000     0.852990000000     0.501460000000     0.596644   
C32      C      0.347730000000     0.155740000000     0.505670000000     0.681463   
C33      C      0.657290000000     0.153830000000     0.485630000000     0.708337   
C34      C      0.659740000000     0.849020000000     0.499860000000     0.685362   
C35      C      0.506550000000     0.849060000000     0.657910000000     0.554043   
C36      C      0.512290000000     0.153270000000     0.667250000000     0.65731    
C37      C      0.357420000000     0.352390000000     0.039020000000     0.718598   
C38      C      0.668180000000     0.350960000000     0.006040000000     0.681866   
C39      C      0.511190000000     0.350650000000     0.854230000000     0.681217   
C40      C      0.500370000000     0.348810000000     0.162300000000     0.737986   
C41      C      0.662570000000     0.654570000000     0.006560000000     0.570773   
C42      C      0.357400000000     0.658710000000     0.016390000000     0.643481   
C43      C      0.657950000000     0.506080000000     0.853140000000     0.5835     
C44      C      0.668980000000     0.489780000000     0.159780000000     0.701563   
C45      C      0.363230000000     0.492180000000     0.168460000000     0.72486    
C46      C      0.350560000000     0.485090000000     0.860670000000     0.67986    
C47      C      0.508870000000     0.654700000000     0.857880000000     0.559416   
C48      C      0.513290000000     0.657350000000     0.163450000000     0.652316   
C49      C      0.529800000000     0.279070000000     0.328720000000     0.0109942  
C50      C      0.548470000000     0.191550000000     0.244290000000    -0.016355   
C51      C      0.484730000000     0.316540000000     0.279850000000     0.00914712 
C52      C      0.502300000000     0.227120000000     0.195300000000     0.109052   
C53      C      0.526350000000     0.689240000000     0.281060000000     0.0140243  
C54      C      0.536410000000     0.773590000000     0.191080000000    -0.0264204  
C55      C      0.483480000000     0.736940000000     0.320830000000     0.00441541 
C56      C      0.492900000000     0.821330000000     0.230250000000     0.110863   
C57      C      0.517050000000     0.730480000000     0.687800000000     0.000617926
C58      C      0.538680000000     0.818050000000     0.771490000000    -0.0279372  
C59      C      0.486900000000     0.686160000000     0.741900000000     0.00112866 
C60      C      0.509060000000     0.775310000000     0.826970000000     0.0989427  
C61      C      0.524510000000     0.320000000000     0.736800000000     0.00431289 
C62      C      0.550500000000     0.239220000000     0.826290000000    -0.00745078 
C63      C      0.487800000000     0.267000000000     0.698460000000     0.0170293  
C64      C      0.517250000000     0.183450000000     0.787670000000     0.097257   
C65      C      0.775890000000     0.186870000000     0.472380000000     0.0140513  
C66      C      0.686120000000     0.265700000000     0.445790000000    -0.0135932  
C67      C      0.812400000000     0.240510000000     0.511960000000     0.00531643 
C68      C      0.718410000000     0.319010000000     0.488490000000     0.0984668  
C69      C      0.775800000000     0.816380000000     0.523880000000     0.0153137  
C70      C      0.689810000000     0.731050000000     0.493110000000    -0.0199306  
C71      C      0.827700000000     0.778150000000     0.483730000000    -0.00080283 
C72      C      0.741650000000     0.697480000000     0.449360000000     0.100307   
C73      C      0.228330000000     0.187110000000     0.509180000000     0.00457399 
C74      C      0.316930000000     0.270160000000     0.531900000000    -0.0147091  
C75      C      0.189180000000     0.238800000000     0.469780000000     0.0104765  
C76      C      0.278980000000     0.322530000000     0.492740000000     0.112633   
C77      C      0.235590000000     0.823130000000     0.486790000000     0.00353694 
C78      C      0.324840000000     0.740240000000     0.466610000000    -0.0259797  
C79      C      0.194690000000     0.771890000000     0.523470000000     0.00912092 
C80      C      0.283770000000     0.686120000000     0.499870000000     0.114439   
C81      C      0.786540000000     0.505670000000     0.187890000000     0.00355771 
C82      C      0.700560000000     0.476830000000     0.277150000000    -0.0133782  
C83      C      0.837990000000     0.465980000000     0.226100000000     0.0167827  
C84      C      0.754290000000     0.435760000000     0.311510000000     0.103667   
C85      C      0.335660000000     0.491020000000     0.288200000000     0.0129686  
C86      C      0.254510000000     0.531860000000     0.205060000000    -0.0138088  
C87      C      0.279010000000     0.460800000000     0.329320000000     0.00827909 
C88      C      0.196810000000     0.500020000000     0.241900000000     0.112937   
C89      C      0.315700000000     0.463540000000     0.744570000000     0.00145873 
C90      C      0.231170000000     0.468240000000     0.834740000000    -0.0113023  
C91      C      0.272020000000     0.507790000000     0.701390000000     0.0157541  
C92      C      0.186820000000     0.512840000000     0.791960000000     0.0960133  
C93      C      0.775930000000     0.502450000000     0.817680000000     0.00504248 
C94      C      0.684180000000     0.491990000000     0.734310000000    -0.0235472  
C95      C      0.815190000000     0.544380000000     0.768310000000    -0.00223936 
C96      C      0.724970000000     0.532310000000     0.684210000000     0.100605   
C97      C      0.736810000000     0.821290000000     0.984830000000     0.00508798 
C98      C      0.826850000000     0.736520000000     0.983300000000    -0.0236911  
C99      C      0.691610000000     0.772200000000     0.021530000000    -0.00459223 
C100     C      0.783160000000     0.688680000000     0.022420000000     0.100165   
C101     C      0.735760000000     0.191180000000     0.048570000000     0.000148828
C102     C      0.825650000000     0.276010000000     0.050860000000    -0.0148911  
C103     C      0.697530000000     0.232630000000     0.997700000000     0.0191244  
C104     C      0.789700000000     0.315490000000     0.997220000000     0.106376   
C105     C      0.326570000000     0.776630000000     0.008290000000    -0.0044435  
C106     C      0.241420000000     0.687840000000     0.992710000000    -0.00893551 
C107     C      0.275450000000     0.817990000000     0.045830000000     0.0161643  
C108     C      0.190400000000     0.728450000000     0.030870000000     0.103416   
C109     C      0.281400000000     0.189020000000     0.019820000000     0.00646364 
C110     C      0.192010000000     0.275390000000     0.030070000000    -0.0169638  
C111     C      0.328940000000     0.234510000000     0.058550000000     0.0108847  
C112     C      0.239380000000     0.317270000000     0.072390000000     0.104855   
C113     C      0.734850000000     0.023710000000     0.831860000000    -0.000921383
C114     C      0.822320000000     0.049830000000     0.748700000000    -0.0313021  
C115     C      0.693260000000     0.989650000000     0.778830000000     0.0054928  
C116     C      0.781220000000     0.018750000000     0.693110000000     0.112056   
C117     C      0.193540000000     0.030310000000     0.732640000000    -0.00237629 
C118     C      0.280590000000     0.023210000000     0.821120000000    -0.0149898  
C119     C      0.234300000000     0.982250000000     0.689720000000     0.00479793 
C120     C      0.317490000000     0.971260000000     0.780210000000     0.0969673  
C121     C      0.278910000000     0.050420000000     0.190760000000     0.0100652  
C122     C      0.189460000000     0.050540000000     0.275830000000    -0.0110323  
C123     C      0.321180000000     0.005110000000     0.235090000000     0.0084436  
C124     C      0.228110000000     0.000850000000     0.317700000000     0.0995054  
C125     C      0.731990000000     0.000600000000     0.195630000000    -0.000783238
C126     C      0.820890000000     0.983150000000     0.280470000000    -0.0163644  
C127     C      0.694470000000     0.045360000000     0.244060000000     0.0133101  
C128     C      0.784000000000     0.028510000000     0.328730000000     0.110888   
C129     C      0.036430000000     0.240640000000     0.698260000000     0.0113658  
C130     C      0.026580000000     0.329180000000     0.784160000000    -0.0297619  
C131     C      0.994920000000     0.194720000000     0.741380000000     0.00478838 
C132     C      0.985080000000     0.283180000000     0.827600000000     0.113968   
C133     C      0.980350000000     0.780600000000     0.684630000000     0.00693965 
C134     C      0.964730000000     0.693690000000     0.769890000000    -0.0266881  
C135     C      0.014750000000     0.825420000000     0.736040000000    -0.00810863 
C136     C      0.000380000000     0.735770000000     0.822160000000     0.0987931  
C137     C      0.038760000000     0.728540000000     0.184180000000     0.00584023 
C138     C      0.067520000000     0.815660000000     0.265600000000    -0.0103989  
C139     C      0.003170000000     0.688760000000     0.237390000000     0.0118393  
C140     C      0.034130000000     0.777880000000     0.321860000000     0.101846   
C141     C      0.053520000000     0.181490000000     0.284100000000     0.0100457  
C142     C      0.065740000000     0.266160000000     0.196360000000    -0.0167761  
C143     C      0.018790000000     0.232190000000     0.329390000000     0.00718001 
C144     C      0.027360000000     0.316780000000     0.237840000000     0.108058   
H1       H      0.960780000000     0.957390000000     0.058340000000    -1.27486    
H2       H      0.048640000000     0.043480000000     0.049390000000    -1.06411    
H3       H      0.946520000000     0.118650000000     0.955710000000    -0.52449    
H4       H      0.120040000000     0.946590000000     0.946890000000    -0.50296    
H5       H      0.961390000000     0.552750000000     0.455620000000    -1.27583    
H6       H      0.046280000000     0.464630000000     0.471070000000    -1.1068     
H7       H      0.940930000000     0.396300000000     0.567480000000    -0.49862    
H8       H      0.115440000000     0.565080000000     0.570500000000    -0.590156   
H9       H      0.459100000000     0.958360000000     0.458450000000    -1.22774    
H10      H      0.544880000000     0.044130000000     0.470680000000    -1.09439    
H11      H      0.617690000000     0.943240000000     0.567730000000    -0.537994   
H12      H      0.445080000000     0.113490000000     0.570280000000    -0.538489   
H13      H      0.555630000000     0.454030000000     0.961720000000    -1.25043    
H14      H      0.471730000000     0.463070000000     0.050900000000    -1.10129    
H15      H      0.396190000000     0.560420000000     0.952500000000    -0.523755   
H16      H      0.573830000000     0.559860000000     0.120000000000    -0.566358   
H17      H      0.432370000000     0.302700000000     0.290700000000     0.0212753  
H18      H      0.512250000000     0.288790000000     0.379990000000     0.0332706  
H19      H      0.451620000000     0.206170000000     0.202350000000     0.00444686 
H20      H      0.546610000000     0.137650000000     0.234310000000     0.0435927  
H21      H      0.489470000000     0.370170000000     0.290200000000     0.0360509  
H22      H      0.580980000000     0.299290000000     0.324200000000     0.0239237  
H23      H      0.600420000000     0.207920000000     0.234850000000     0.0294447  
H24      H      0.487210000000     0.214830000000     0.093180000000     0.0891501  
H25      H      0.569640000000     0.233850000000     0.115750000000     0.089727   
H26      H      0.430440000000     0.726350000000     0.309420000000     0.0247912  
H27      H      0.510270000000     0.637990000000     0.292400000000     0.0318244  
H28      H      0.440590000000     0.812800000000     0.214340000000     0.00778359 
H29      H      0.529290000000     0.783200000000     0.137330000000     0.0504815  
H30      H      0.490930000000     0.726070000000     0.374230000000     0.038325   
H31      H      0.578860000000     0.694780000000     0.297350000000     0.0293983  
H32      H      0.589460000000     0.783970000000     0.202740000000     0.0376855  
H33      H      0.473760000000     0.922610000000     0.220540000000     0.0861829  
H34      H      0.558540000000     0.902380000000     0.229650000000     0.0879402  
H35      H      0.431900000000     0.690960000000     0.739460000000     0.0319612  
H36      H      0.491140000000     0.720140000000     0.640260000000     0.0383884  
H37      H      0.456640000000     0.791440000000     0.834200000000     0.0139596  
H38      H      0.529470000000     0.870600000000     0.784350000000     0.0486079  
H39      H      0.499010000000     0.634170000000     0.729200000000     0.039072   
H40      H      0.570180000000     0.716740000000     0.681350000000     0.0330729  
H41      H      0.593580000000     0.811130000000     0.770970000000     0.0421486  
H42      H      0.517350000000     0.790500000000     0.929660000000     0.0991181  
H43      H      0.590340000000     0.762040000000     0.891220000000     0.0981123  
H44      H      0.434070000000     0.270280000000     0.711040000000     0.0252776  
H45      H      0.501160000000     0.368480000000     0.725660000000     0.0367786  
H46      H      0.466140000000     0.177090000000     0.807860000000     0.0109051  
H47      H      0.545690000000     0.228470000000     0.880080000000     0.0404898  
H48      H      0.492530000000     0.278680000000     0.644890000000     0.0311764  
H49      H      0.576980000000     0.321560000000     0.719470000000     0.0274166  
H50      H      0.604600000000     0.239360000000     0.814650000000     0.0305566  
H51      H      0.526080000000     0.081130000000     0.801990000000     0.0959767  
H52      H      0.597580000000     0.119290000000     0.770020000000     0.096492   
H53      H      0.800820000000     0.233020000000     0.565310000000     0.0245153  
H54      H      0.787210000000     0.138450000000     0.495460000000     0.02907    
H55      H      0.697370000000     0.312870000000     0.539200000000     0.0113085  
H56      H      0.631460000000     0.273510000000     0.444440000000     0.0504808  
H57      H      0.866420000000     0.230990000000     0.506070000000     0.0294406  
H58      H      0.795630000000     0.186560000000     0.420910000000     0.0224209  
H59      H      0.704750000000     0.271050000000     0.394120000000     0.0300712  
H60      H      0.690740000000     0.416850000000     0.500720000000     0.0865563  
H61      H      0.717820000000     0.403340000000     0.420280000000     0.158671   
H62      H      0.830200000000     0.799970000000     0.433210000000     0.0266788  
H63      H      0.787590000000     0.869850000000     0.520630000000     0.0306466  
H64      H      0.739870000000     0.723300000000     0.400650000000     0.0103371  
H65      H      0.640050000000     0.724580000000     0.469970000000     0.0488982  
H66      H      0.876870000000     0.785730000000     0.507600000000     0.0387421  
H67      H      0.780790000000     0.801750000000     0.576740000000     0.0284299  
H68      H      0.689110000000     0.706560000000     0.542430000000     0.0382058  
H69      H      0.754620000000     0.606590000000     0.402380000000     0.0926616  
H70      H      0.716760000000     0.601540000000     0.480680000000     0.0901063  
H71      H      0.201930000000     0.232910000000     0.416490000000     0.0201653  
H72      H      0.218640000000     0.137710000000     0.487550000000     0.0315368  
H73      H      0.298620000000     0.321970000000     0.441160000000     0.00413186 
H74      H      0.370950000000     0.280900000000     0.527640000000     0.0424385  
H75      H      0.135370000000     0.227670000000     0.474880000000     0.0337251  
H76      H      0.209390000000     0.186770000000     0.560940000000     0.0274242  
H77      H      0.303650000000     0.274770000000     0.585250000000     0.0332009  
H78      H      0.292620000000     0.425530000000     0.489890000000     0.0922872  
H79      H      0.270980000000     0.393920000000     0.568390000000     0.089429   
H80      H      0.205150000000     0.776740000000     0.577360000000     0.029279   
H81      H      0.224380000000     0.872370000000     0.508330000000     0.0362297  
H82      H      0.302210000000     0.680790000000     0.551610000000     0.0103374  
H83      H      0.378350000000     0.728730000000     0.473990000000     0.0491739  
H84      H      0.141350000000     0.784030000000     0.516190000000     0.0336115  
H85      H      0.220060000000     0.823610000000     0.433900000000     0.0263636  
H86      H      0.315420000000     0.738850000000     0.412260000000     0.0340505  
H87      H      0.297720000000     0.583450000000     0.494520000000     0.0845678  
H88      H      0.266970000000     0.619340000000     0.421530000000     0.0913423  
H89      H      0.837390000000     0.414280000000     0.207520000000     0.0232719  
H90      H      0.796710000000     0.499420000000     0.134180000000     0.0308018  
H91      H      0.752720000000     0.385530000000     0.288970000000     0.00571776 
H92      H      0.652040000000     0.451200000000     0.283230000000     0.0410673  
H93      H      0.888000000000     0.487070000000     0.216150000000     0.0301459  
H94      H      0.793650000000     0.558810000000     0.199680000000     0.0247865  
H95      H      0.696900000000     0.525940000000     0.301470000000     0.0331921  
H96      H      0.788940000000     0.406280000000     0.394610000000     0.108257   
H97      H      0.736900000000     0.477110000000     0.401000000000     0.100451   
H98      H      0.277700000000     0.406840000000     0.319420000000     0.0182239  
H99      H      0.380810000000     0.459960000000     0.294490000000     0.0316953  
H100     H      0.187670000000     0.451560000000     0.217860000000     0.00254868 
H101     H      0.241840000000     0.533940000000     0.151470000000     0.0423659  
H102     H      0.291520000000     0.467120000000     0.382450000000     0.0312085  
H103     H      0.346990000000     0.540890000000     0.308290000000     0.0239026  
H104     H      0.259850000000     0.583810000000     0.222260000000     0.0311043  
H105     H      0.094640000000     0.517220000000     0.226720000000     0.0841656  
H106     H      0.137310000000     0.582560000000     0.265080000000     0.0897211  
H107     H      0.288320000000     0.559760000000     0.708510000000     0.027052   
H108     H      0.368640000000     0.472530000000     0.731790000000     0.0371829  
H109     H      0.200000000000     0.564730000000     0.804570000000     0.0140071  
H110     H      0.222730000000     0.480380000000     0.887780000000     0.0416427  
H111     H      0.281940000000     0.494820000000     0.648870000000     0.0291528  
H112     H      0.304260000000     0.411250000000     0.732310000000     0.0277745  
H113     H      0.215750000000     0.416040000000     0.827140000000     0.0320203  
H114     H      0.087180000000     0.541670000000     0.799230000000     0.0996321  
H115     H      0.100010000000     0.455890000000     0.795310000000     0.0984653  
H116     H      0.802680000000     0.597080000000     0.777430000000     0.030647   
H117     H      0.787700000000     0.519800000000     0.868550000000     0.03311    
H118     H      0.709490000000     0.584790000000     0.689800000000     0.0135824  
H119     H      0.630660000000     0.502410000000     0.725510000000     0.0503008  
H120     H      0.868920000000     0.538580000000     0.779420000000     0.0404792  
H121     H      0.792990000000     0.450420000000     0.813490000000     0.0296081  
H122     H      0.692080000000     0.438550000000     0.724310000000     0.03634    
H123     H      0.715670000000     0.546110000000     0.582070000000     0.0938173  
H124     H      0.726030000000     0.463460000000     0.606570000000     0.094777   
H125     H      0.694900000000     0.782880000000     0.075480000000     0.0312616  
H126     H      0.724370000000     0.872050000000     0.001580000000     0.0362641  
H127     H      0.793620000000     0.697330000000     0.075910000000     0.010283   
H128     H      0.879370000000     0.726680000000     0.997160000000     0.0482607  
H129     H      0.639610000000     0.782400000000     0.006200000000     0.0377266  
H130     H      0.725370000000     0.818320000000     0.931010000000     0.0300876  
H131     H      0.820580000000     0.725410000000     0.929690000000     0.0365307  
H132     H      0.792910000000     0.587690000000     0.043070000000     0.0941019  
H133     H      0.790300000000     0.607350000000     0.957970000000     0.0995902  
H134     H      0.710380000000     0.214140000000     0.947410000000     0.0232009  
H135     H      0.724470000000     0.138140000000     0.040390000000     0.0373045  
H136     H      0.807210000000     0.295950000000     0.948660000000     0.00959283 
H137     H      0.880030000000     0.284790000000     0.047060000000     0.0420765  
H138     H      0.643570000000     0.223790000000     0.005010000000     0.026295   
H139     H      0.717510000000     0.204570000000     0.098820000000     0.0270311  
H140     H      0.809200000000     0.294260000000     0.100220000000     0.0335418  
H141     H      0.795870000000     0.411580000000     0.959510000000     0.097151   
H142     H      0.798090000000     0.406610000000     0.046740000000     0.100464   
H143     H      0.281750000000     0.808260000000     0.099700000000     0.024174   
H144     H      0.376570000000     0.787000000000     0.029330000000     0.0382368  
H145     H      0.193280000000     0.713070000000     0.083770000000     0.0100251  
H146     H      0.230490000000     0.634720000000     0.001160000000     0.0427027  
H147     H      0.287270000000     0.870890000000     0.037520000000     0.030398   
H148     H      0.326810000000     0.792570000000     0.955560000000     0.0348251  
H149     H      0.235190000000     0.697420000000     0.938760000000     0.0365933  
H150     H      0.086920000000     0.717910000000     0.039410000000     0.101343   
H151     H      0.115940000000     0.729890000000     0.957780000000     0.0954678  
H152     H      0.327130000000     0.219950000000     0.111660000000     0.0199479  
H153     H      0.292830000000     0.137080000000     0.033400000000     0.0344459  
H154     H      0.232770000000     0.300390000000     0.124510000000     0.00406031 
H155     H      0.140500000000     0.283330000000     0.048330000000     0.0455952  
H156     H      0.380160000000     0.224690000000     0.040760000000     0.0292644  
H157     H      0.292170000000     0.194600000000     0.966080000000     0.0263578  
H158     H      0.194030000000     0.293180000000     0.977960000000     0.0329143  
H159     H      0.240460000000     0.414560000000     0.106250000000     0.103438   
H160     H      0.221800000000     0.406160000000     0.021390000000     0.0912016  
H161     H      0.703240000000     0.935720000000     0.781320000000     0.030989   
H162     H      0.725020000000     0.999110000000     0.880120000000     0.0410338  
H163     H      0.800930000000     0.968090000000     0.684590000000     0.012181   
H164     H      0.875790000000     0.044160000000     0.736060000000     0.0514971  
H165     H      0.640040000000     0.996850000000     0.791680000000     0.0354583  
H166     H      0.718390000000     0.075960000000     0.835920000000     0.0303785  
H167     H      0.811880000000     0.103780000000     0.750190000000     0.040561   
H168     H      0.795170000000     0.030170000000     0.590490000000     0.0844206  
H169     H      0.760930000000     0.099370000000     0.630230000000     0.0912582  
H170     H      0.214650000000     0.931620000000     0.698060000000     0.0309096  
H171     H      0.139880000000     0.022860000000     0.722030000000     0.0372662  
H172     H      0.294930000000     0.922740000000     0.793180000000     0.016284   
H173     H      0.289740000000     0.013820000000     0.874580000000     0.0433937  
H174     H      0.225390000000     0.994590000000     0.636860000000     0.0388271  
H175     H      0.206480000000     0.081470000000     0.717440000000     0.0308714  
H176     H      0.301340000000     0.072690000000     0.809150000000     0.0350174  
H177     H      0.412250000000     0.928900000000     0.779120000000     0.101796   
H178     H      0.411550000000     0.014300000000     0.795760000000     0.0950652  
H179     H      0.314310000000     0.953450000000     0.217780000000     0.0239152  
H180     H      0.290710000000     0.040040000000     0.138010000000     0.0340116  
H181     H      0.213350000000     0.950770000000     0.300300000000     0.00998048 
H182     H      0.135380000000     0.044370000000     0.285090000000     0.0463795  
H183     H      0.374200000000     0.018060000000     0.227000000000     0.0283675  
H184     H      0.293410000000     0.102380000000     0.201060000000     0.0229124  
H185     H      0.203380000000     0.101190000000     0.292010000000     0.0293663  
H186     H      0.219790000000     0.966230000000     0.415090000000     0.0977452  
H187     H      0.220160000000     0.052910000000     0.407320000000     0.100651   
H188     H      0.709550000000     0.097230000000     0.234070000000     0.0219973  
H189     H      0.722280000000     0.018270000000     0.144420000000     0.0389493  
H190     H      0.803760000000     0.079280000000     0.321050000000     0.00578684 
H191     H      0.875120000000     0.987050000000     0.290260000000     0.0399296  
H192     H      0.640490000000     0.041750000000     0.233180000000     0.0305592  
H193     H      0.711420000000     0.949840000000     0.199920000000     0.0271729  
H194     H      0.806050000000     0.931210000000     0.290590000000     0.0304691  
H195     H      0.793780000000     0.044340000000     0.430970000000     0.0987997  
H196     H      0.781490000000     0.961220000000     0.408390000000     0.0927735  
H197     H      0.941990000000     0.199300000000     0.726140000000     0.0296985  
H198     H      0.027310000000     0.228230000000     0.645420000000     0.0306882  
H199     H      0.932050000000     0.292060000000     0.814480000000     0.010305   
H200     H      0.009590000000     0.380560000000     0.793220000000     0.0469837  
H201     H      0.010820000000     0.143350000000     0.730510000000     0.0364474  
H202     H      0.089850000000     0.231140000000     0.708760000000     0.0263466  
H203     H      0.079600000000     0.325690000000     0.799490000000     0.035838   
H204     H      0.956100000000     0.285790000000     0.927340000000     0.0934249  
H205     H      0.042570000000     0.292670000000     0.914310000000     0.0886693  
H206     H      0.069370000000     0.821220000000     0.728780000000     0.0338218  
H207     H      0.002150000000     0.790870000000     0.635090000000     0.0345216  
H208     H      0.053150000000     0.719260000000     0.823910000000     0.0123801  
H209     H      0.973020000000     0.640830000000     0.782090000000     0.0492428  
H210     H      0.001000000000     0.877310000000     0.724630000000     0.0395938  
H211     H      0.926860000000     0.794270000000     0.682510000000     0.0309078  
H212     H      0.910260000000     0.702690000000     0.773730000000     0.0393301  
H213     H      0.001840000000     0.720640000000     0.925050000000     0.0924631  
H214     H      0.926100000000     0.748780000000     0.892440000000     0.102314   
H215     H      0.948920000000     0.698430000000     0.233210000000     0.0220593  
H216     H      0.014270000000     0.718440000000     0.135890000000     0.0320725  
H217     H      0.984210000000     0.800210000000     0.330000000000     0.00956714 
H218     H      0.065400000000     0.869330000000     0.276830000000     0.0411874  
H219     H      0.010960000000     0.635640000000     0.226110000000     0.0290486  
H220     H      0.091200000000     0.711390000000     0.181070000000     0.0275848  
H221     H      0.121060000000     0.801770000000     0.263950000000     0.0326057  
H222     H      0.046640000000     0.793660000000     0.424050000000     0.0986276  
H223     H      0.114110000000     0.754690000000     0.384960000000     0.0990044  
H224     H      0.964340000000     0.223050000000     0.327140000000     0.0254649  
H225     H      0.033680000000     0.131560000000     0.295370000000     0.0314378  
H226     H      0.974250000000     0.313760000000     0.222550000000     0.00859526 
H227     H      0.057870000000     0.277580000000     0.143100000000     0.0492072  
H228     H      0.034800000000     0.222030000000     0.381110000000     0.0315299  
H229     H      0.107320000000     0.181410000000     0.296640000000     0.0206281  
H230     H      0.119820000000     0.271960000000     0.206530000000     0.030561   
H231     H      0.016520000000     0.418490000000     0.223140000000     0.0904679  
H232     H      0.097100000000     0.392480000000     0.244680000000     0.101265   
N1       N      0.499260000000     0.299550000000     0.209860000000    -0.242517   
N2       N      0.531290000000     0.208130000000     0.313040000000    -0.228174   
N3       N      0.525030000000     0.210450000000     0.128360000000    -0.20287    
N4       N      0.498030000000     0.806200000000     0.302440000000    -0.23329    
N5       N      0.521630000000     0.705150000000     0.210220000000    -0.212997   
N6       N      0.511830000000     0.888660000000     0.211450000000    -0.200974   
N7       N      0.508570000000     0.703580000000     0.809900000000    -0.205841   
N8       N      0.513210000000     0.800740000000     0.705460000000    -0.192877   
N9       N      0.547080000000     0.790420000000     0.887170000000    -0.200986   
N10      N      0.511840000000     0.200200000000     0.715930000000    -0.227555   
N11      N      0.523130000000     0.303720000000     0.807480000000    -0.222611   
N12      N      0.555890000000     0.123370000000     0.800740000000    -0.202073   
N13      N      0.792680000000     0.309010000000     0.493620000000    -0.223781   
N14      N      0.704300000000     0.200390000000     0.470520000000    -0.229811   
N15      N      0.694580000000     0.382370000000     0.462300000000    -0.220254   
N16      N      0.808860000000     0.707910000000     0.478360000000    -0.216022   
N17      N      0.707480000000     0.801060000000     0.501900000000    -0.21926    
N18      N      0.723170000000     0.628650000000     0.437150000000    -0.201993   
N19      N      0.206300000000     0.306820000000     0.490300000000    -0.244427   
N20      N      0.299590000000     0.203300000000     0.510080000000    -0.218451   
N21      N      0.295350000000     0.386240000000     0.523230000000    -0.202538   
N22      N      0.211880000000     0.704080000000     0.502540000000    -0.237465   
N23      N      0.306280000000     0.805960000000     0.490960000000    -0.204373   
N24      N      0.297100000000     0.624740000000     0.463450000000    -0.20053    
N25      N      0.819970000000     0.466930000000     0.296400000000    -0.23657    
N26      N      0.717910000000     0.486810000000     0.206370000000    -0.222178   
N27      N      0.744100000000     0.429040000000     0.383280000000    -0.260101   
N28      N      0.212890000000     0.488480000000     0.313320000000    -0.247903   
N29      N      0.317110000000     0.497390000000     0.218060000000    -0.230872   
N30      N      0.139160000000     0.543320000000     0.231430000000    -0.201047   
N31      N      0.200920000000     0.502480000000     0.719970000000    -0.224768   
N32      N      0.301190000000     0.474980000000     0.815020000000    -0.21783    
N33      N      0.117630000000     0.501640000000     0.811420000000    -0.202628   
N34      N      0.797460000000     0.527730000000     0.699120000000    -0.207596   
N35      N      0.704280000000     0.505280000000     0.803240000000    -0.201604   
N36      N      0.706420000000     0.509970000000     0.617760000000    -0.202062   
N37      N      0.711320000000     0.702540000000     0.010380000000    -0.209138   
N38      N      0.807570000000     0.805620000000     0.994620000000    -0.199959   
N39      N      0.804520000000     0.621550000000     0.005740000000    -0.202175   
N40      N      0.716640000000     0.303140000000     0.002310000000    -0.235535   
N41      N      0.807260000000     0.206110000000     0.044390000000    -0.219402   
N42      N      0.810240000000     0.384740000000     0.001380000000    -0.204731   
N43      N      0.206780000000     0.800270000000     0.026710000000    -0.23257    
N44      N      0.309450000000     0.706120000000     0.011420000000    -0.211727   
N45      N      0.124850000000     0.710330000000     0.004920000000    -0.203884   
N46      N      0.309840000000     0.304790000000     0.052880000000    -0.241891   
N47      N      0.210650000000     0.205040000000     0.031070000000    -0.223066   
N48      N      0.218220000000     0.386300000000     0.069100000000    -0.202956   
N49      N      0.709490000000     0.013030000000     0.711290000000    -0.227697   
N50      N      0.805450000000     0.022070000000     0.813700000000    -0.195838   
N51      N      0.792940000000     0.058800000000     0.633550000000    -0.199693   
N52      N      0.305520000000     0.983570000000     0.708300000000    -0.208233   
N53      N      0.209530000000     0.022310000000     0.803540000000    -0.208949   
N54      N      0.387340000000     0.968850000000     0.800530000000    -0.200956   
N55      N      0.301000000000     0.009030000000     0.305750000000    -0.230222   
N56      N      0.207860000000     0.042260000000     0.205910000000    -0.230769   
N57      N      0.206840000000     0.007470000000     0.386750000000    -0.204572   
N58      N      0.711150000000     0.029190000000     0.313520000000    -0.244972   
N59      N      0.803470000000     0.998810000000     0.211650000000    -0.21553    
N60      N      0.801460000000     0.007280000000     0.395940000000    -0.204792   
N61      N      0.000890000000     0.212810000000     0.812150000000    -0.227078   
N62      N      0.021290000000     0.309830000000     0.714200000000    -0.212394   
N63      N      0.994610000000     0.302620000000     0.896900000000    -0.199894   
N64      N      0.999390000000     0.807840000000     0.805670000000    -0.203163   
N65      N      0.985630000000     0.710340000000     0.702400000000    -0.193173   
N66      N      0.968520000000     0.720080000000     0.885380000000    -0.199457   
N67      N      0.024770000000     0.706580000000     0.305210000000    -0.235588   
N68      N      0.037660000000     0.798660000000     0.201750000000    -0.22149    
N69      N      0.075180000000     0.788690000000     0.381040000000    -0.201478   
N70      N      0.031240000000     0.301890000000     0.310420000000    -0.24102    
N71      N      0.046110000000     0.198650000000     0.213670000000    -0.226957   
N72      N      0.052980000000     0.381870000000     0.219690000000    -0.202224   
O1       O      0.030040000000     0.172630000000     0.102380000000    -1.05894    
O2       O      0.015530000000     0.828580000000     0.093120000000    -0.808403   
O3       O      0.915880000000     0.998720000000     0.181610000000    -1.00792    
O4       O      0.098270000000     0.020660000000     0.177980000000    -1.07956    
O5       O      0.180760000000     0.023840000000     0.095270000000    -1.04451    
O6       O      0.831460000000     0.006270000000     0.100240000000    -0.79628    
O7       O      0.019780000000     0.909400000000     0.177670000000    -1.02798    
O8       O      0.023370000000     0.089530000000     0.183440000000    -1.0474     
O9       O      0.080810000000     0.941100000000     0.077590000000    -2.08459    
O10      O      0.945080000000     0.074850000000     0.083460000000    -2.1062     
O11      O      0.936730000000     0.931980000000     0.083370000000    -0.870893   
O12      O      0.022730000000     0.018970000000     0.023050000000    -2.56941    
O13      O      0.004370000000     0.837990000000     0.917860000000    -0.73584    
O14      O      0.007820000000     0.179430000000     0.922960000000    -0.954155   
O15      O      0.834950000000     0.917700000000     0.005230000000    -0.732977   
O16      O      0.180810000000     0.912850000000     0.016120000000    -0.934733   
O17      O      0.181590000000     0.093780000000     0.021230000000    -1.01752    
O18      O      0.834210000000     0.095390000000     0.027990000000    -0.764191   
O19      O      0.917760000000     0.013260000000     0.839630000000    -0.591664   
O20      O      0.097150000000     0.017240000000     0.832670000000    -0.62544    
O21      O      0.835270000000     0.007740000000     0.924290000000    -0.722609   
O22      O      0.180540000000     0.012640000000     0.915020000000    -0.929521   
O23      O      0.919420000000     0.835190000000     0.002980000000    -0.755769   
O24      O      0.918020000000     0.177080000000     0.028350000000    -0.958889   
O25      O      0.098560000000     0.175670000000     0.025780000000    -1.04134    
O26      O      0.096330000000     0.832660000000     0.016210000000    -0.799301   
O27      O      0.004640000000     0.920970000000     0.834960000000    -0.574954   
O28      O      0.009750000000     0.100770000000     0.837250000000    -0.631995   
O29      O      0.078380000000     0.077590000000     0.946790000000    -1.98169    
O30      O      0.946160000000     0.947460000000     0.946580000000    -1.61014    
O31      O      0.934620000000     0.076330000000     0.941080000000    -1.24335    
O32      O      0.076630000000     0.934950000000     0.934330000000    -1.25856    
O33      O      0.018790000000     0.331700000000     0.422360000000    -1.02894    
O34      O      0.017820000000     0.679150000000     0.416650000000    -0.80507    
O35      O      0.927930000000     0.494550000000     0.327220000000    -1.08257    
O36      O      0.101540000000     0.490440000000     0.342020000000    -1.14679    
O37      O      0.182020000000     0.490710000000     0.425740000000    -1.06381    
O38      O      0.841960000000     0.503040000000     0.404850000000    -0.831474   
O39      O      0.014120000000     0.595530000000     0.335470000000    -1.0324     
O40      O      0.026860000000     0.413490000000     0.340820000000    -1.09469    
O41      O      0.081460000000     0.567560000000     0.438960000000    -2.16534    
O42      O      0.943270000000     0.434000000000     0.435890000000    -2.10712    
O43      O      0.938500000000     0.576640000000     0.428080000000    -0.879916   
O44      O      0.019900000000     0.490840000000     0.495310000000    -2.6033     
O45      O      0.998290000000     0.679380000000     0.591220000000    -0.70661    
O46      O      0.010220000000     0.335350000000     0.602280000000    -0.94004    
O47      O      0.834620000000     0.596140000000     0.493930000000    -0.758594   
O48      O      0.179850000000     0.593960000000     0.508620000000    -1.00656    
O49      O      0.175000000000     0.416610000000     0.498500000000    -1.14525    
O50      O      0.824860000000     0.421520000000     0.500150000000    -0.780169   
O51      O      0.910200000000     0.512600000000     0.675090000000    -0.589738   
O52      O      0.089070000000     0.505380000000     0.686240000000    -0.63328    
O53      O      0.831480000000     0.519830000000     0.587670000000    -0.724369   
O54      O      0.174560000000     0.498720000000     0.607000000000    -0.967517   
O55      O      0.919270000000     0.678080000000     0.497350000000    -0.731839   
O56      O      0.906200000000     0.337660000000     0.502170000000    -0.896372   
O57      O      0.093040000000     0.334170000000     0.497230000000    -1.0313     
O58      O      0.099020000000     0.677570000000     0.500440000000    -0.771189   
O59      O      0.996350000000     0.598140000000     0.676560000000    -0.579128   
O60      O      0.006540000000     0.419390000000     0.683600000000    -0.634016   
O61      O      0.072300000000     0.435920000000     0.574820000000    -1.99767    
O62      O      0.943070000000     0.568650000000     0.565180000000    -1.60845    
O63      O      0.928490000000     0.439780000000     0.578020000000    -1.24553    
O64      O      0.072500000000     0.579170000000     0.581380000000    -1.22891    
O65      O      0.678010000000     0.019230000000     0.423290000000    -1.10205    
O66      O      0.330540000000     0.009510000000     0.418110000000    -0.799669   
O67      O      0.503020000000     0.916680000000     0.335160000000    -1.02075    
O68      O      0.521780000000     0.096930000000     0.340640000000    -1.07196    
O69      O      0.517150000000     0.178100000000     0.423860000000    -1.03696    
O70      O      0.508440000000     0.831600000000     0.414580000000    -0.792546   
O71      O      0.413650000000     0.009050000000     0.335880000000    -0.988724   
O72      O      0.597710000000     0.019950000000     0.339460000000    -1.05157    
O73      O      0.441310000000     0.076950000000     0.438840000000    -2.08633    
O74      O      0.577930000000     0.941680000000     0.436310000000    -2.09246    
O75      O      0.434550000000     0.934680000000     0.432160000000    -0.877456   
O76      O      0.519030000000     0.018160000000     0.495670000000    -2.5734     
O77      O      0.334580000000     0.994640000000     0.596230000000    -0.71572    
O78      O      0.678120000000     0.010260000000     0.600190000000    -0.973281   
O79      O      0.417700000000     0.833390000000     0.502810000000    -0.755127   
O80      O      0.411810000000     0.174800000000     0.509140000000    -0.950756   
O81      O      0.593830000000     0.173160000000     0.490830000000    -1.06241    
O82      O      0.595900000000     0.830490000000     0.495500000000    -0.781271   
O83      O      0.508750000000     0.912570000000     0.678190000000    -0.579387   
O84      O      0.509130000000     0.089700000000     0.684750000000    -0.63728    
O85      O      0.503280000000     0.831010000000     0.593290000000    -0.700759   
O86      O      0.512420000000     0.173490000000     0.603720000000    -0.954684   
O87      O      0.333590000000     0.916450000000     0.504830000000    -0.758767   
O88      O      0.678680000000     0.912430000000     0.505700000000    -0.960485   
O89      O      0.677100000000     0.091400000000     0.493400000000    -1.06632    
O90      O      0.329210000000     0.092280000000     0.502140000000    -0.784709   
O91      O      0.417780000000     0.996000000000     0.679480000000    -0.590483   
O92      O      0.596590000000     0.007490000000     0.683700000000    -0.625255   
O93      O      0.576170000000     0.073640000000     0.573500000000    -2.00537    
O94      O      0.444940000000     0.941740000000     0.568690000000    -1.59831    
O95      O      0.574650000000     0.929970000000     0.579400000000    -1.261      
O96      O      0.432220000000     0.070650000000     0.582180000000    -1.2373     
O97      O      0.339350000000     0.415660000000     0.036560000000    -1.07509    
O98      O      0.686380000000     0.414380000000     0.007210000000    -0.816681   
O99      O      0.512010000000     0.331930000000     0.918130000000    -1.04413    
O100     O      0.501940000000     0.331680000000     0.098590000000    -1.1037     
O101     O      0.500860000000     0.412110000000     0.181830000000    -1.05463    
O102     O      0.505090000000     0.413580000000     0.834470000000    -0.795142   
O103     O      0.603880000000     0.331860000000     0.006910000000    -1.00685    
O104     O      0.420370000000     0.333030000000     0.028350000000    -1.07014    
O105     O      0.576520000000     0.431610000000     0.079480000000    -2.12391    
O106     O      0.436450000000     0.431280000000     0.948580000000    -2.08638    
O107     O      0.579860000000     0.428900000000     0.936520000000    -0.881439   
O108     O      0.496640000000     0.488950000000     0.024830000000    -2.58233    
O109     O      0.680800000000     0.590580000000     0.004630000000    -0.733353   
O110     O      0.338380000000     0.594960000000     0.014900000000    -0.928727   
O111     O      0.593060000000     0.504780000000     0.835760000000    -0.736914   
O112     O      0.605730000000     0.491640000000     0.180700000000    -0.981724   
O113     O      0.427280000000     0.488670000000     0.185280000000    -1.09217    
O114     O      0.413770000000     0.488620000000     0.839430000000    -0.766026   
O115     O      0.508240000000     0.673040000000     0.922090000000    -0.589146   
O116     O      0.510050000000     0.676120000000     0.099940000000    -0.638065   
O117     O      0.507150000000     0.590690000000     0.838410000000    -0.703484   
O118     O      0.513420000000     0.593720000000     0.182830000000    -0.943395   
O119     O      0.679740000000     0.505640000000     0.916600000000    -0.745596   
O120     O      0.333640000000     0.489720000000     0.925040000000    -0.949275   
O121     O      0.342080000000     0.496480000000     0.105620000000    -1.05096    
O122     O      0.686330000000     0.492850000000     0.095560000000    -0.784192   
O123     O      0.598350000000     0.673920000000     0.008710000000    -0.590364   
O124     O      0.421110000000     0.677650000000     0.017560000000    -0.636517   
O125     O      0.441720000000     0.565680000000     0.083080000000    -1.99693    
O126     O      0.569090000000     0.564130000000     0.947370000000    -1.60742    
O127     O      0.438660000000     0.574120000000     0.939250000000    -1.24442    
O128     O      0.585050000000     0.573660000000     0.077170000000    -1.241      
Tb1      Tb     0.007980000000     0.001450000000     0.121400000000     6.3866     
Tb2      Tb     0.009730000000     0.895700000000     0.009920000000     4.42908    
Tb3      Tb     0.007600000000     0.117300000000     0.011960000000     6.30226    
Tb4      Tb     0.896400000000     0.007550000000     0.014740000000     4.34189    
Tb5      Tb     0.121410000000     0.004380000000     0.006540000000     6.17252    
Tb6      Tb     0.009970000000     0.011500000000     0.897550000000     3.14688    
Tb7      Tb     0.009920000000     0.504880000000     0.396260000000     6.61426    
Tb8      Tb     0.009270000000     0.616670000000     0.502260000000     4.28229    
Tb9      Tb     0.001940000000     0.393340000000     0.510730000000     6.11967    
Tb10     Tb     0.894430000000     0.505880000000     0.499090000000     4.40052    
Tb11     Tb     0.118030000000     0.505660000000     0.513520000000     6.60366    
Tb12     Tb     0.003730000000     0.505580000000     0.619170000000     3.14835    
Tb13     Tb     0.505120000000     0.005660000000     0.396640000000     6.25969    
Tb14     Tb     0.394350000000     0.005830000000     0.504810000000     4.39359    
Tb15     Tb     0.617900000000     0.002690000000     0.510390000000     6.42792    
Tb16     Tb     0.508020000000     0.893270000000     0.502530000000     4.35164    
Tb17     Tb     0.503830000000     0.116010000000     0.511980000000     6.30667    
Tb18     Tb     0.508560000000     0.004310000000     0.620040000000     3.10161    
Tb19     Tb     0.511430000000     0.390970000000     0.008890000000     6.44401    
Tb20     Tb     0.621410000000     0.499310000000     0.008800000000     4.40758    
Tb21     Tb     0.397480000000     0.503580000000     0.012520000000     6.2404     
Tb22     Tb     0.504460000000     0.499100000000     0.898940000000     4.31326    
Tb23     Tb     0.514620000000     0.502750000000     0.122830000000     6.42552    
Tb24     Tb     0.507440000000     0.613370000000     0.013110000000     3.1627     


