data_structure

_audit_creation_method RASPA-1.0
_audit_creation_date 2023-5-19
_audit_author_name 'Poobodin Mano'

_cell_length_a    20.0072
_cell_length_b    20.2636
_cell_length_c    20.1383
_cell_angle_alpha 90
_cell_angle_beta  90
_cell_angle_gamma 90
_cell_volume      8164.43

_symmetry_cell_setting          triclinic
_symmetry_space_group_name_Hall 'P 1'
_symmetry_space_group_name_H-M  'P 1'
_symmetry_Int_Tables_number     1

_symmetry_equiv_pos_as_xyz 'x,y,z'

loop_
_atom_site_label
_atom_site_type_symbol
_atom_site_fract_x
_atom_site_fract_y
_atom_site_fract_z
_atom_site_charge
C1       C      0.024760000000     0.158610000000     0.157710000000     0.726744   
C2       C      0.004390000000     0.852350000000     0.173410000000     0.670821   
C3       C      0.848950000000     0.012370000000     0.163380000000     0.673455   
C4       C      0.157560000000     0.030410000000     0.168250000000     0.730197   
C5       C      0.014530000000     0.842100000000     0.867820000000     0.56805    
C6       C      0.025760000000     0.146110000000     0.848700000000     0.64112    
C7       C      0.856610000000     0.848920000000     0.013670000000     0.583411   
C8       C      0.165890000000     0.849090000000     0.040380000000     0.680856   
C9       C      0.164070000000     0.153930000000     0.025750000000     0.701418   
C10      C      0.851590000000     0.153050000000     0.003560000000     0.6778     
C11      C      0.861020000000     0.985400000000     0.860280000000     0.591063   
C12      C      0.167370000000     0.004640000000     0.858350000000     0.636943   
C13      C      0.031150000000     0.355840000000     0.353940000000     0.724167   
C14      C      0.034170000000     0.665610000000     0.362570000000     0.672074   
C15      C      0.861100000000     0.517390000000     0.351030000000     0.66792    
C16      C      0.169630000000     0.487160000000     0.358230000000     0.749777   
C17      C      0.011320000000     0.645690000000     0.670780000000     0.555859   
C18      C      0.013470000000     0.344560000000     0.659870000000     0.635679   
C19      C      0.865750000000     0.660130000000     0.512130000000     0.586287   
C20      C      0.172530000000     0.656300000000     0.513700000000     0.697136   
C21      C      0.165080000000     0.351320000000     0.483730000000     0.734771   
C22      C      0.854220000000     0.355610000000     0.485180000000     0.679187   
C23      C      0.856720000000     0.505190000000     0.655180000000     0.568845   
C24      C      0.168880000000     0.493200000000     0.665700000000     0.654916   
C25      C      0.663220000000     0.044090000000     0.359860000000     0.728049   
C26      C      0.353140000000     0.011730000000     0.356740000000     0.667775   
C27      C      0.523820000000     0.862820000000     0.345690000000     0.665229   
C28      C      0.516100000000     0.170130000000     0.369270000000     0.751157   
C29      C      0.361000000000     0.986530000000     0.664890000000     0.565286   
C30      C      0.664820000000     0.007170000000     0.666870000000     0.653078   
C31      C      0.364680000000     0.849260000000     0.497390000000     0.593128   
C32      C      0.347110000000     0.154060000000     0.513050000000     0.683779   
C33      C      0.659320000000     0.165580000000     0.507570000000     0.725671   
C34      C      0.671450000000     0.858760000000     0.492970000000     0.681028   
C35      C      0.505670000000     0.848110000000     0.651070000000     0.571369   
C36      C      0.516180000000     0.151950000000     0.676090000000     0.644582   
C37      C      0.351650000000     0.355210000000     0.003560000000     0.716629   
C38      C      0.349840000000     0.661490000000     0.001500000000     0.680458   
C39      C      0.361750000000     0.520040000000     0.174190000000     0.675123   
C40      C      0.342560000000     0.479130000000     0.869360000000     0.71413    
C41      C      0.658320000000     0.658660000000     0.991560000000     0.573137   
C42      C      0.661980000000     0.352370000000     0.005390000000     0.648612   
C43      C      0.523550000000     0.666360000000     0.151220000000     0.585461   
C44      C      0.487390000000     0.652720000000     0.846930000000     0.689628   
C45      C      0.483050000000     0.348190000000     0.862050000000     0.715685   
C46      C      0.509180000000     0.362210000000     0.171630000000     0.683378   
C47      C      0.666870000000     0.519190000000     0.151740000000     0.572143   
C48      C      0.655470000000     0.491320000000     0.847850000000     0.643116   
C49      C      0.539900000000     0.249780000000     0.206640000000     0.0128438  
C50      C      0.527330000000     0.339360000000     0.290640000000    -0.00125654 
C51      C      0.504900000000     0.201680000000     0.252740000000     0.0149217  
C52      C      0.493700000000     0.290800000000     0.338980000000     0.0343635  
C53      C      0.556590000000     0.701450000000     0.264130000000     0.00333454 
C54      C      0.550590000000     0.783650000000     0.173040000000    -0.00628418 
C55      C      0.520170000000     0.747370000000     0.311250000000     0.00618613 
C56      C      0.526100000000     0.837580000000     0.222580000000     0.0344393  
C57      C      0.478140000000     0.816480000000     0.765060000000    -0.0030376  
C58      C      0.505340000000     0.728800000000     0.678250000000    -0.0109987  
C59      C      0.504700000000     0.767140000000     0.814700000000     0.0160603  
C60      C      0.471360000000     0.681000000000     0.727840000000     0.0497675  
C61      C      0.517470000000     0.182290000000     0.796960000000    -0.00247123 
C62      C      0.530290000000     0.268490000000     0.709340000000     0.00713329 
C63      C      0.469030000000     0.228830000000     0.834950000000     0.00965857 
C64      C      0.473780000000     0.308460000000     0.740680000000     0.0321397  
C65      C      0.735350000000     0.324740000000     0.461480000000     0.00127408 
C66      C      0.822390000000     0.237770000000     0.479290000000     0.00787117 
C67      C      0.686680000000     0.285270000000     0.506250000000     0.010182   
C68      C      0.778120000000     0.206810000000     0.532540000000     0.0312408  
C69      C      0.788970000000     0.830030000000     0.512260000000     0.0175193  
C70      C      0.706130000000     0.743540000000     0.471470000000    -0.000747242
C71      C      0.841100000000     0.777540000000     0.494400000000     0.000377927
C72      C      0.746930000000     0.694010000000     0.512540000000     0.0369869  
C73      C      0.226470000000     0.185640000000     0.505750000000     0.00421862 
C74      C      0.314240000000     0.269910000000     0.531670000000     0.0102399  
C75      C      0.194120000000     0.234960000000     0.456750000000     0.0088926  
C76      C      0.287660000000     0.313490000000     0.475900000000     0.0319081  
C77      C      0.205620000000     0.772960000000     0.530950000000     0.0107483  
C78      C      0.292690000000     0.684520000000     0.521930000000     0.0119488  
C79      C      0.246530000000     0.816590000000     0.484370000000     0.000118361
C80      C      0.332320000000     0.728180000000     0.473730000000     0.0230505  
C81      C      0.744620000000     0.541020000000     0.318170000000     0.00929475 
C82      C      0.836280000000     0.549530000000     0.235480000000     0.0106983  
C83      C      0.699800000000     0.507160000000     0.267750000000     0.0012588  
C84      C      0.790080000000     0.522880000000     0.179890000000     0.0227993  
C85      C      0.332700000000     0.527020000000     0.294420000000     0.002905   
C86      C      0.244810000000     0.538680000000     0.207600000000     0.00913199 
C87      C      0.289640000000     0.474500000000     0.329620000000     0.0139822  
C88      C      0.207960000000     0.479540000000     0.236380000000     0.0341351  
C89      C      0.296530000000     0.423160000000     0.769890000000     0.00452568 
C90      C      0.228450000000     0.508350000000     0.832190000000     0.00984891 
C91      C      0.279870000000     0.457810000000     0.704020000000     0.0168193  
C92      C      0.220130000000     0.545440000000     0.766630000000     0.0259972  
C93      C      0.736860000000     0.493240000000     0.678770000000     0.00106315 
C94      C      0.820810000000     0.513470000000     0.772020000000    -0.0114804  
C95      C      0.684360000000     0.511110000000     0.731260000000     0.0153539  
C96      C      0.772810000000     0.473130000000     0.814950000000     0.0424533  
C97      C      0.822900000000     0.730650000000     0.019860000000     0.00270317 
C98      C      0.736230000000     0.820190000000     0.019430000000    -0.00443938 
C99      C      0.777450000000     0.688840000000     0.974720000000    -0.0026009  
C100     C      0.694290000000     0.779390000000     0.970610000000     0.0284468  
C101     C      0.780870000000     0.319140000000     0.014790000000    -0.00414514 
C102     C      0.689210000000     0.235670000000     0.027270000000     0.00768912 
C103     C      0.822100000000     0.268160000000     0.976370000000     0.0152131  
C104     C      0.729040000000     0.186710000000     0.985100000000     0.0294139  
C105     C      0.285740000000     0.817490000000     0.048940000000     0.0125318  
C106     C      0.196380000000     0.731820000000     0.056650000000    -0.0019636  
C107     C      0.318340000000     0.779230000000     0.991610000000     0.0028547  
C108     C      0.226240000000     0.696690000000     0.996260000000     0.0350307  
C109     C      0.231530000000     0.321220000000     0.999240000000     0.0175804  
C110     C      0.321850000000     0.238600000000     0.980780000000     0.00712425 
C111     C      0.194430000000     0.271310000000     0.043800000000     0.00116308 
C112     C      0.287630000000     0.190170000000     0.028780000000     0.0296812  
C113     C      0.742310000000     0.984690000000     0.833940000000     0.0107329  
C114     C      0.829460000000     0.973440000000     0.742210000000    -0.00994396 
C115     C      0.693630000000     0.969160000000     0.778120000000     0.00453265 
C116     C      0.783040000000     0.017080000000     0.700770000000     0.0481644  
C117     C      0.199280000000     0.015510000000     0.739320000000     0.00304118 
C118     C      0.286820000000     0.016090000000     0.828130000000     0.00536728 
C119     C      0.242790000000     0.969110000000     0.697230000000     0.000296106
C120     C      0.327850000000     0.966620000000     0.787380000000     0.0244099  
C121     C      0.321170000000     0.012260000000     0.237330000000     0.0120627  
C122     C      0.234530000000     0.996850000000     0.326090000000     0.000923313
C123     C      0.273430000000     0.059150000000     0.200720000000     0.00628173 
C124     C      0.189730000000     0.047210000000     0.291150000000     0.033993   
C125     C      0.728690000000     0.016740000000     0.196450000000     0.000518734
C126     C      0.819250000000     0.009880000000     0.282630000000     0.00756498 
C127     C      0.691060000000     0.066210000000     0.241350000000     0.0125096  
C128     C      0.784510000000     0.064840000000     0.321570000000     0.0292501  
C129     C      0.006320000000     0.308900000000     0.777410000000    -0.00381884 
C130     C      0.997660000000     0.226000000000     0.685430000000     0.0120748  
C131     C      0.050460000000     0.260980000000     0.816240000000     0.0128761  
C132     C      0.041420000000     0.177790000000     0.725530000000     0.0227825  
C133     C      0.031260000000     0.807510000000     0.751530000000    -0.000623235
C134     C      0.035280000000     0.724340000000     0.843470000000    -0.00346549 
C135     C      0.993490000000     0.759290000000     0.707910000000     0.00661399 
C136     C      0.014280000000     0.669180000000     0.793680000000     0.0246306  
C137     C      0.993400000000     0.823710000000     0.293700000000     0.0164952  
C138     C      0.000300000000     0.735220000000     0.206770000000    -0.00222086 
C139     C      0.044630000000     0.785050000000     0.336080000000    -0.00280507 
C140     C      0.058960000000     0.705260000000     0.244110000000     0.0344677  
C141     C      0.041370000000     0.188450000000     0.274940000000     0.0158715  
C142     C      0.025910000000     0.277160000000     0.186640000000     0.00136599 
C143     C      0.014190000000     0.240210000000     0.322770000000     0.014834   
C144     C      0.059290000000     0.322600000000     0.238250000000     0.0456442  
H1       H      0.961430000000     0.955830000000     0.063110000000    -1.29564    
H2       H      0.048650000000     0.042460000000     0.050870000000    -1.03276    
H3       H      0.951950000000     0.108820000000     0.945240000000    -0.486354   
H4       H      0.125600000000     0.938230000000     0.959220000000    -0.477097   
H5       H      0.969510000000     0.554410000000     0.460470000000    -1.24337    
H6       H      0.053950000000     0.465350000000     0.469240000000    -1.11988    
H7       H      0.948720000000     0.391790000000     0.562770000000    -0.508065   
H8       H      0.126500000000     0.558570000000     0.571910000000    -0.64215    
H9       H      0.464960000000     0.962460000000     0.457980000000    -1.24146    
H10      H      0.549200000000     0.050930000000     0.473770000000    -1.08216    
H11      H      0.625500000000     0.948190000000     0.565400000000    -0.551686   
H12      H      0.446210000000     0.112600000000     0.577540000000    -0.53548    
H13      H      0.458840000000     0.556830000000     0.056090000000    -1.28629    
H14      H      0.463770000000     0.465970000000     0.973140000000    -1.07105    
H15      H      0.567610000000     0.399310000000     0.069880000000    -0.539568   
H16      H      0.559380000000     0.560130000000     0.889950000000    -0.511204   
H17      H      0.581920000000     0.342070000000     0.301400000000     0.0296117  
H18      H      0.594780000000     0.245360000000     0.214440000000     0.024934   
H19      H      0.525480000000     0.151990000000     0.241370000000     0.0327957  
H20      H      0.505950000000     0.389480000000     0.298700000000     0.038991   
H21      H      0.438800000000     0.295630000000     0.331750000000     0.020946   
H22      H      0.529180000000     0.235030000000     0.154570000000     0.0305505  
H23      H      0.450780000000     0.200850000000     0.240040000000     0.0235607  
H24      H      0.605730000000     0.787140000000     0.165490000000     0.0336826  
H25      H      0.611320000000     0.709490000000     0.269810000000     0.0316449  
H26      H      0.537880000000     0.735340000000     0.362160000000     0.0401616  
H27      H      0.527300000000     0.793660000000     0.123870000000     0.0401991  
H28      H      0.472720000000     0.847720000000     0.211110000000     0.0209575  
H29      H      0.545670000000     0.649770000000     0.279010000000     0.039814   
H30      H      0.465830000000     0.735880000000     0.309420000000     0.027468   
H31      H      0.487440000000     0.719310000000     0.626750000000     0.0437142  
H32      H      0.422730000000     0.818690000000     0.768680000000     0.0370733  
H33      H      0.485730000000     0.781760000000     0.864510000000     0.0370267  
H34      H      0.559780000000     0.717750000000     0.677640000000     0.0359578  
H35      H      0.490230000000     0.630550000000     0.716870000000     0.0241145  
H36      H      0.498010000000     0.865390000000     0.780040000000     0.0429945  
H37      H      0.560180000000     0.770520000000     0.816310000000     0.0304517  
H38      H      0.578710000000     0.285030000000     0.731040000000     0.0300059  
H39      H      0.568260000000     0.188630000000     0.818430000000     0.0315477  
H40      H      0.476450000000     0.221310000000     0.889070000000     0.0344516  
H41      H      0.533220000000     0.277720000000     0.654940000000     0.0363327  
H42      H      0.425990000000     0.287200000000     0.722120000000     0.0236666  
H43      H      0.502050000000     0.130280000000     0.805510000000     0.0375719  
H44      H      0.417140000000     0.212760000000     0.823520000000     0.0241407  
H45      H      0.811100000000     0.214440000000     0.430520000000     0.0282905  
H46      H      0.724600000000     0.311310000000     0.409020000000     0.0269094  
H47      H      0.635480000000     0.290990000000     0.485980000000     0.0354456  
H48      H      0.876060000000     0.228550000000     0.490390000000     0.0350201  
H49      H      0.786320000000     0.235960000000     0.578720000000     0.0263284  
H50      H      0.724790000000     0.378290000000     0.467000000000     0.037786   
H51      H      0.687040000000     0.308090000000     0.556470000000     0.0268561  
H52      H      0.652020000000     0.731250000000     0.474790000000     0.0418949  
H53      H      0.788770000000     0.837240000000     0.567010000000     0.0309403  
H54      H      0.888270000000     0.789780000000     0.520910000000     0.0369987  
H55      H      0.720030000000     0.737220000000     0.418380000000     0.0292227  
H56      H      0.736620000000     0.644250000000     0.491660000000     0.0306629  
H57      H      0.804500000000     0.877840000000     0.489900000000     0.0272762  
H58      H      0.852000000000     0.780760000000     0.440330000000     0.0272384  
H59      H      0.288840000000     0.283760000000     0.578910000000     0.0263361  
H60      H      0.200090000000     0.189940000000     0.554150000000     0.0272938  
H61      H      0.139200000000     0.227020000000     0.456520000000     0.0365397  
H62      H      0.368690000000     0.278240000000     0.539230000000     0.0340094  
H63      H      0.310250000000     0.295250000000     0.428810000000     0.0230492  
H64      H      0.218740000000     0.134650000000     0.486900000000     0.0351485  
H65      H      0.212300000000     0.222610000000     0.406040000000     0.0245148  
H66      H      0.311410000000     0.692760000000     0.573350000000     0.0324103  
H67      H      0.218880000000     0.785990000000     0.582970000000     0.0304299  
H68      H      0.235330000000     0.868840000000     0.496650000000     0.0385049  
H69      H      0.300830000000     0.631600000000     0.509460000000     0.0332202  
H70      H      0.312830000000     0.717300000000     0.423130000000     0.0244267  
H71      H      0.151780000000     0.784420000000     0.523880000000     0.0369652  
H72      H      0.228730000000     0.807980000000     0.432750000000     0.028959   
H73      H      0.836490000000     0.604600000000     0.235230000000     0.0246339  
H74      H      0.734720000000     0.595040000000     0.316510000000     0.0260235  
H75      H      0.647520000000     0.520730000000     0.280450000000     0.0401477  
H76      H      0.888310000000     0.533490000000     0.224400000000     0.0318938  
H77      H      0.804440000000     0.470740000000     0.170290000000     0.0295306  
H78      H      0.730800000000     0.523030000000     0.368470000000     0.0364397  
H79      H      0.704350000000     0.452860000000     0.274530000000     0.0318833  
H80      H      0.226330000000     0.584470000000     0.232110000000     0.0262133  
H81      H      0.321550000000     0.575740000000     0.317320000000     0.026026   
H82      H      0.297780000000     0.480260000000     0.383630000000     0.0361009  
H83      H      0.235180000000     0.544110000000     0.153420000000     0.0327956  
H84      H      0.232240000000     0.434610000000     0.215620000000     0.0231026  
H85      H      0.386370000000     0.516000000000     0.303250000000     0.0368468  
H86      H      0.308630000000     0.424960000000     0.315140000000     0.0245518  
H87      H      0.184930000000     0.475030000000     0.839560000000     0.0331186  
H88      H      0.259720000000     0.382640000000     0.776840000000     0.0240064  
H89      H      0.274880000000     0.420020000000     0.664190000000     0.0278895  
H90      H      0.230700000000     0.544250000000     0.873760000000     0.0351299  
H91      H      0.267610000000     0.573730000000     0.761420000000     0.0277579  
H92      H      0.346610000000     0.400000000000     0.767170000000     0.0324791  
H93      H      0.322060000000     0.491050000000     0.690800000000     0.0282242  
H94      H      0.873350000000     0.500730000000     0.784930000000     0.0452886  
H95      H      0.731600000000     0.440130000000     0.665830000000     0.0347718  
H96      H      0.635450000000     0.489910000000     0.715930000000     0.029422   
H97      H      0.814450000000     0.566490000000     0.784830000000     0.0373706  
H98      H      0.785050000000     0.485150000000     0.867390000000     0.0342803  
H99      H      0.725580000000     0.521610000000     0.632810000000     0.0396335  
H100     H      0.678080000000     0.565650000000     0.732070000000     0.0305265  
H101     H      0.719000000000     0.809750000000     0.070970000000     0.0324047  
H102     H      0.814540000000     0.715070000000     0.072130000000     0.029936   
H103     H      0.787370000000     0.635980000000     0.985020000000     0.0412706  
H104     H      0.727990000000     0.873670000000     0.009890000000     0.0422223  
H105     H      0.713170000000     0.791510000000     0.920060000000     0.0286287  
H106     H      0.875830000000     0.719670000000     0.007300000000     0.0380726  
H107     H      0.792650000000     0.697900000000     0.922370000000     0.0342369  
H108     H      0.700060000000     0.226660000000     0.080780000000     0.029726   
H109     H      0.796750000000     0.317980000000     0.067700000000     0.0321255  
H110     H      0.875710000000     0.278780000000     0.985810000000     0.0328862  
H111     H      0.634810000000     0.227020000000     0.019600000000     0.0346894  
H112     H      0.715780000000     0.196500000000     0.932340000000     0.0272546  
H113     H      0.792500000000     0.369010000000     0.994870000000     0.0414831  
H114     H      0.813290000000     0.276140000000     0.922420000000     0.0294913  
H115     H      0.219290000000     0.711160000000     0.102590000000     0.0292643  
H116     H      0.309490000000     0.801160000000     0.096090000000     0.0236605  
H117     H      0.373030000000     0.788500000000     0.992670000000     0.0379457  
H118     H      0.141510000000     0.723330000000     0.059840000000     0.0393585  
H119     H      0.204570000000     0.720980000000     0.951570000000     0.0242542  
H120     H      0.296150000000     0.871010000000     0.042900000000     0.0302101  
H121     H      0.299070000000     0.799790000000     0.944090000000     0.0306746  
H122     H      0.304390000000     0.228200000000     0.929270000000     0.0248093  
H123     H      0.211020000000     0.317100000000     0.948080000000     0.0237593  
H124     H      0.139930000000     0.280460000000     0.039010000000     0.0368739  
H125     H      0.376860000000     0.230520000000     0.981380000000     0.0390663  
H126     H      0.307210000000     0.200870000000     0.079350000000     0.0218727  
H127     H      0.220950000000     0.371930000000     0.017440000000     0.0300432  
H128     H      0.207950000000     0.282360000000     0.096190000000     0.0256246  
H129     H      0.882540000000     0.985690000000     0.731170000000     0.0439225  
H130     H      0.732870000000     0.035750000000     0.852020000000     0.0358523  
H131     H      0.642810000000     0.984090000000     0.794730000000     0.03987    
H132     H      0.821990000000     0.921280000000     0.726730000000     0.0354722  
H133     H      0.795370000000     0.008580000000     0.647650000000     0.0259367  
H134     H      0.731950000000     0.950840000000     0.876260000000     0.0370956  
H135     H      0.692420000000     0.914830000000     0.770250000000     0.0330123  
H136     H      0.303540000000     0.067110000000     0.815910000000     0.0313529  
H137     H      0.209100000000     0.067050000000     0.723010000000     0.0313773  
H138     H      0.232060000000     0.978910000000     0.644040000000     0.0384976  
H139     H      0.295670000000     0.008070000000     0.882100000000     0.0340845  
H140     H      0.309550000000     0.916630000000     0.801340000000     0.0281717  
H141     H      0.145960000000     0.004580000000     0.728700000000     0.0404423  
H142     H      0.226980000000     0.917510000000     0.707670000000     0.0324094  
H143     H      0.221090000000     0.946380000000     0.308670000000     0.027991   
H144     H      0.315410000000     0.962070000000     0.215750000000     0.025419   
H145     H      0.284010000000     0.056200000000     0.146740000000     0.0385779  
H146     H      0.225540000000     0.998380000000     0.380610000000     0.0393672  
H147     H      0.204860000000     0.096800000000     0.309570000000     0.0219824  
H148     H      0.373360000000     0.028660000000     0.228130000000     0.028899   
H149     H      0.285260000000     0.110440000000     0.216540000000     0.0243508  
H150     H      0.801880000000     0.961240000000     0.301760000000     0.0271567  
H151     H      0.707630000000     0.966790000000     0.205330000000     0.0283987  
H152     H      0.636550000000     0.060400000000     0.232820000000     0.0331739  
H153     H      0.874200000000     0.012370000000     0.290790000000     0.0331735  
H154     H      0.801020000000     0.112340000000     0.299140000000     0.022638   
H155     H      0.719080000000     0.029640000000     0.143670000000     0.0373592  
H156     H      0.704440000000     0.116870000000     0.224700000000     0.0233857  
H157     H      0.943970000000     0.214700000000     0.694800000000     0.0318841  
H158     H      0.953790000000     0.302680000000     0.794370000000     0.036154   
H159     H      0.044610000000     0.272030000000     0.869920000000     0.0333392  
H160     H      0.006960000000     0.218420000000     0.631470000000     0.0324722  
H161     H      0.094140000000     0.187440000000     0.710860000000     0.0263849  
H162     H      0.022070000000     0.360080000000     0.789600000000     0.0388717  
H163     H      0.103470000000     0.271510000000     0.803340000000     0.0264697  
H164     H      0.090200000000     0.722200000000     0.852070000000     0.0323398  
H165     H      0.085570000000     0.803470000000     0.740370000000     0.034969   
H166     H      0.002710000000     0.773330000000     0.655360000000     0.0369415  
H167     H      0.011560000000     0.713330000000     0.892200000000     0.0393483  
H168     H      0.962660000000     0.653730000000     0.806990000000     0.0318394  
H169     H      0.014830000000     0.858200000000     0.738150000000     0.0402016  
H170     H      0.939040000000     0.765300000000     0.717290000000     0.033572   
H171     H      0.953080000000     0.712010000000     0.224470000000     0.0297452  
H172     H      0.942500000000     0.810220000000     0.311220000000     0.0216104  
H173     H      0.032390000000     0.792590000000     0.389340000000     0.0377236  
H174     H      0.004400000000     0.725010000000     0.152640000000     0.0406905  
H175     H      0.104090000000     0.734350000000     0.230150000000     0.0248812  
H176     H      0.000200000000     0.877410000000     0.302570000000     0.0278353  
H177     H      0.094790000000     0.807110000000     0.327420000000     0.0291306  
H178     H      0.047160000000     0.286630000000     0.136400000000     0.0348709  
H179     H      0.095780000000     0.181930000000     0.283900000000     0.0259461  
H180     H      0.029890000000     0.225940000000     0.373770000000     0.0343854  
H181     H      0.972030000000     0.290270000000     0.183490000000     0.0293595  
H182     H      0.046410000000     0.373900000000     0.224470000000     0.0256901  
H183     H      0.016460000000     0.141010000000     0.287240000000     0.032391   
H184     H      0.958630000000     0.238640000000     0.321810000000     0.0261897  
N1       N      0.512390000000     0.220720000000     0.323430000000    -0.235815   
N2       N      0.519220000000     0.317650000000     0.221540000000    -0.221105   
N3       N      0.529740000000     0.817860000000     0.294270000000    -0.218085   
N4       N      0.537050000000     0.716040000000     0.195600000000    -0.20221    
N5       N      0.485630000000     0.699050000000     0.797640000000    -0.225678   
N6       N      0.497020000000     0.798850000000     0.696640000000    -0.196141   
N7       N      0.476250000000     0.298980000000     0.814600000000    -0.227673   
N8       N      0.520340000000     0.198460000000     0.725560000000    -0.211702   
N9       N      0.706680000000     0.215100000000     0.512440000000    -0.229564   
N10      N      0.805920000000     0.308450000000     0.475710000000    -0.218881   
N11      N      0.819030000000     0.709560000000     0.509790000000    -0.206899   
N12      N      0.720950000000     0.812280000000     0.490690000000    -0.219548   
N13      N      0.213490000000     0.303980000000     0.472110000000    -0.232522   
N14      N      0.297860000000     0.200900000000     0.516040000000    -0.221072   
N15      N      0.318370000000     0.799470000000     0.488440000000    -0.204271   
N16      N      0.221590000000     0.702890000000     0.519630000000    -0.223368   
N17      N      0.717530000000     0.523570000000     0.198210000000    -0.197901   
N18      N      0.814980000000     0.528960000000     0.302090000000    -0.221373   
N19      N      0.218250000000     0.479590000000     0.310080000000    -0.235438   
N20      N      0.315810000000     0.529930000000     0.223320000000    -0.223232   
N21      N      0.218430000000     0.497090000000     0.711890000000    -0.217774   
N22      N      0.290540000000     0.468880000000     0.826640000000    -0.229219   
N23      N      0.702470000000     0.488860000000     0.798620000000    -0.217119   
N24      N      0.806220000000     0.505310000000     0.700860000000    -0.195532   
N25      N      0.706230000000     0.707330000000     0.982550000000    -0.197384   
N26      N      0.807340000000     0.801630000000     0.014260000000    -0.202634   
N27      N      0.802280000000     0.199730000000     0.993450000000    -0.217413   
N28      N      0.709080000000     0.303780000000     0.011190000000    -0.212799   
N29      N      0.300220000000     0.708430000000     0.995740000000    -0.220394   
N30      N      0.213730000000     0.802190000000     0.051470000000    -0.221333   
N31      N      0.213480000000     0.201920000000     0.029400000000    -0.224285   
N32      N      0.303680000000     0.306990000000     0.997260000000    -0.231722   
N33      N      0.712390000000     0.001310000000     0.714950000000    -0.218902   
N34      N      0.812710000000     0.979190000000     0.813170000000    -0.201484   
N35      N      0.314260000000     0.976340000000     0.714590000000    -0.196381   
N36      N      0.215890000000     0.009800000000     0.810570000000    -0.211856   
N37      N      0.203060000000     0.044470000000     0.217920000000    -0.231656   
N38      N      0.304810000000     0.009430000000     0.308700000000    -0.221457   
N39      N      0.710770000000     0.058470000000     0.311930000000    -0.232515   
N40      N      0.800840000000     0.015000000000     0.211900000000    -0.220596   
N41      N      0.035100000000     0.191720000000     0.798400000000    -0.211215   
N42      N      0.009910000000     0.294770000000     0.705800000000    -0.2123     
N43      N      0.012420000000     0.690470000000     0.722370000000    -0.197464   
N44      N      0.020020000000     0.792140000000     0.821880000000    -0.197035   
N45      N      0.046490000000     0.714540000000     0.316470000000    -0.219855   
N46      N      0.998970000000     0.806130000000     0.222660000000    -0.220234   
N47      N      0.036100000000     0.307830000000     0.306140000000    -0.234996   
N48      N      0.031000000000     0.206880000000     0.204840000000    -0.23217    
O1       O      0.020410000000     0.176090000000     0.093750000000    -1.03424    
O2       O      0.009320000000     0.830630000000     0.110700000000    -0.804774   
O3       O      0.913270000000     0.010860000000     0.182680000000    -1.04473    
O4       O      0.093690000000     0.022540000000     0.184490000000    -1.10567    
O5       O      0.179320000000     0.025340000000     0.105480000000    -1.02061    
O6       O      0.830310000000     0.010380000000     0.099280000000    -0.790331   
O7       O      0.002820000000     0.916900000000     0.189590000000    -1.01492    
O8       O      0.022030000000     0.096180000000     0.178610000000    -1.10053    
O9       O      0.080580000000     0.941140000000     0.088920000000    -2.08968    
O10      O      0.943660000000     0.076240000000     0.078860000000    -2.08219    
O11      O      0.935900000000     0.932730000000     0.089150000000    -0.878909   
O12      O      0.023790000000     0.015860000000     0.025370000000    -2.56784    
O13      O      0.012290000000     0.825920000000     0.933010000000    -0.716598   
O14      O      0.022030000000     0.168140000000     0.911840000000    -0.904437   
O15      O      0.837330000000     0.912870000000     0.012510000000    -0.742766   
O16      O      0.185290000000     0.912120000000     0.032160000000    -0.944249   
O17      O      0.181910000000     0.090460000000     0.026880000000    -1.03009    
O18      O      0.834400000000     0.089670000000     0.010270000000    -0.788799   
O19      O      0.925490000000     0.988110000000     0.840760000000    -0.620489   
O20      O      0.103760000000     0.000410000000     0.838420000000    -0.661688   
O21      O      0.840490000000     0.990200000000     0.923740000000    -0.74533    
O22      O      0.185500000000     0.004560000000     0.923070000000    -0.899524   
O23      O      0.921250000000     0.829150000000     0.016080000000    -0.728967   
O24      O      0.916050000000     0.172610000000     0.002240000000    -0.917737   
O25      O      0.099920000000     0.172950000000     0.020890000000    -1.00739    
O26      O      0.101680000000     0.829890000000     0.037750000000    -0.7722     
O27      O      0.015920000000     0.904940000000     0.845490000000    -0.615698   
O28      O      0.021690000000     0.081860000000     0.833770000000    -0.651636   
O29      O      0.082810000000     0.068280000000     0.948030000000    -1.96625    
O30      O      0.950830000000     0.937430000000     0.953160000000    -1.63741    
O31      O      0.938700000000     0.065550000000     0.935290000000    -1.26849    
O32      O      0.082420000000     0.925160000000     0.946320000000    -1.29047    
O33      O      0.023780000000     0.335590000000     0.416410000000    -1.07457    
O34      O      0.031340000000     0.682520000000     0.427020000000    -0.770053   
O35      O      0.926260000000     0.516470000000     0.334200000000    -1.02452    
O36      O      0.106320000000     0.493950000000     0.339470000000    -1.10373    
O37      O      0.188140000000     0.488330000000     0.422180000000    -1.08966    
O38      O      0.839610000000     0.511790000000     0.413970000000    -0.799176   
O39      O      0.026520000000     0.602930000000     0.341700000000    -1.00031    
O40      O      0.031980000000     0.419760000000     0.336200000000    -1.04076    
O41      O      0.090080000000     0.568680000000     0.442290000000    -2.13807    
O42      O      0.950170000000     0.437210000000     0.433390000000    -2.08998    
O43      O      0.946360000000     0.580690000000     0.435280000000    -0.873386   
O44      O      0.028320000000     0.490450000000     0.495550000000    -2.58882    
O45      O      0.012870000000     0.668360000000     0.607200000000    -0.685509   
O46      O      0.012770000000     0.328500000000     0.594960000000    -0.936058   
O47      O      0.844100000000     0.596840000000     0.511280000000    -0.743006   
O48      O      0.190340000000     0.592150000000     0.512260000000    -0.980718   
O49      O      0.184230000000     0.413650000000     0.491760000000    -1.13481    
O50      O      0.836530000000     0.419570000000     0.486510000000    -0.766702   
O51      O      0.920580000000     0.502050000000     0.677200000000    -0.561093   
O52      O      0.104600000000     0.497880000000     0.685020000000    -0.596658   
O53      O      0.839310000000     0.505930000000     0.590540000000    -0.740265   
O54      O      0.187860000000     0.488460000000     0.602000000000    -0.993878   
O55      O      0.930800000000     0.677890000000     0.512240000000    -0.750563   
O56      O      0.917790000000     0.335320000000     0.493010000000    -0.942255   
O57      O      0.100730000000     0.332820000000     0.486690000000    -1.04162    
O58      O      0.108740000000     0.676440000000     0.512750000000    -0.770773   
O59      O      0.009650000000     0.581340000000     0.686270000000    -0.581309   
O60      O      0.014750000000     0.407170000000     0.681460000000    -0.621009   
O61      O      0.083090000000     0.429150000000     0.571660000000    -2.01437    
O62      O      0.953410000000     0.563240000000     0.571520000000    -1.57321    
O63      O      0.937470000000     0.434600000000     0.576610000000    -1.24493    
O64      O      0.083920000000     0.571820000000     0.585500000000    -1.19352    
O65      O      0.682390000000     0.034950000000     0.422730000000    -1.07205    
O66      O      0.333750000000     0.009470000000     0.420580000000    -0.789592   
O67      O      0.516330000000     0.927430000000     0.331640000000    -1.00311    
O68      O      0.517090000000     0.108100000000     0.346520000000    -1.08888    
O69      O      0.514860000000     0.184170000000     0.433840000000    -1.09744    
O70      O      0.524870000000     0.839890000000     0.408290000000    -0.786339   
O71      O      0.417670000000     0.013900000000     0.337740000000    -1.00665    
O72      O      0.599290000000     0.038970000000     0.340920000000    -1.07571    
O73      O      0.443170000000     0.080590000000     0.444430000000    -2.08793    
O74      O      0.586120000000     0.951990000000     0.434750000000    -2.10292    
O75      O      0.441440000000     0.938710000000     0.430690000000    -0.874887   
O76      O      0.524590000000     0.022860000000     0.497940000000    -2.58811    
O77      O      0.340340000000     0.988760000000     0.600580000000    -0.693848   
O78      O      0.684350000000     0.015540000000     0.603430000000    -0.937637   
O79      O      0.430050000000     0.833790000000     0.496870000000    -0.755434   
O80      O      0.410930000000     0.174570000000     0.518130000000    -0.958736   
O81      O      0.594380000000     0.182260000000     0.509040000000    -1.05031    
O82      O      0.607850000000     0.838510000000     0.488470000000    -0.779207   
O83      O      0.506760000000     0.910460000000     0.674250000000    -0.59626    
O84      O      0.515740000000     0.087500000000     0.691910000000    -0.618978   
O85      O      0.511410000000     0.832030000000     0.586170000000    -0.713343   
O86      O      0.512690000000     0.173560000000     0.613010000000    -0.951469   
O87      O      0.341880000000     0.911960000000     0.503400000000    -0.735342   
O88      O      0.688720000000     0.922400000000     0.502460000000    -0.947228   
O89      O      0.679880000000     0.103010000000     0.503860000000    -1.07271    
O90      O      0.330070000000     0.090200000000     0.507270000000    -0.767343   
O91      O      0.425020000000     0.994390000000     0.682590000000    -0.602235   
O92      O      0.600920000000     0.999930000000     0.684990000000    -0.646967   
O93      O      0.579700000000     0.076510000000     0.578320000000    -2.01939    
O94      O      0.452550000000     0.941300000000     0.567350000000    -1.60707    
O95      O      0.582980000000     0.933240000000     0.577690000000    -1.24084    
O96      O      0.434640000000     0.068800000000     0.587110000000    -1.25181    
O97      O      0.415690000000     0.336550000000     0.003420000000    -1.07756    
O98      O      0.414010000000     0.680860000000     0.996940000000    -0.79333    
O99      O      0.339430000000     0.516820000000     0.111200000000    -1.03285    
O100     O      0.327400000000     0.493980000000     0.931980000000    -1.08474    
O101     O      0.405360000000     0.475490000000     0.846140000000    -1.02888    
O102     O      0.426560000000     0.516460000000     0.190490000000    -0.802157   
O103     O      0.332510000000     0.598380000000     0.011340000000    -1.02623    
O104     O      0.332490000000     0.418270000000     0.009470000000    -1.07271    
O105     O      0.430170000000     0.566590000000     0.937380000000    -2.08916    
O106     O      0.437420000000     0.438660000000     0.080430000000    -2.08269    
O107     O      0.434860000000     0.583020000000     0.080560000000    -0.864801   
O108     O      0.491620000000     0.492370000000     0.995650000000    -2.57424    
O109     O      0.593740000000     0.676540000000     0.997160000000    -0.723947   
O110     O      0.597250000000     0.334630000000     0.008500000000    -0.936551   
O111     O      0.521070000000     0.603810000000     0.174500000000    -0.733472   
O112     O      0.485010000000     0.588350000000     0.830590000000    -0.95219    
O113     O      0.485270000000     0.410640000000     0.841780000000    -1.06686    
O114     O      0.507380000000     0.426570000000     0.187220000000    -0.777851   
O115     O      0.683020000000     0.511740000000     0.087090000000    -0.608758   
O116     O      0.677140000000     0.491130000000     0.910630000000    -0.661759   
O117     O      0.603150000000     0.519970000000     0.173940000000    -0.7189     
O118     O      0.590220000000     0.496520000000     0.831150000000    -0.904328   
O119     O      0.515710000000     0.682600000000     0.086540000000    -0.747268   
O120     O      0.506930000000     0.339790000000     0.108700000000    -0.940485   
O121     O      0.487970000000     0.331610000000     0.926600000000    -1.00818    
O122     O      0.494280000000     0.674180000000     0.909570000000    -0.791883   
O123     O      0.678220000000     0.594700000000     0.991670000000    -0.597731   
O124     O      0.682050000000     0.415500000000     0.001330000000    -0.640154   
O125     O      0.565600000000     0.432690000000     0.937670000000    -1.99452    
O126     O      0.571280000000     0.569770000000     0.062010000000    -1.63418    
O127     O      0.581910000000     0.441940000000     0.080450000000    -1.24122    
O128     O      0.574410000000     0.574850000000     0.931520000000    -1.27418    
S1       S      0.509840000000     0.315520000000     0.413950000000     0.00913377 
S2       S      0.567700000000     0.904600000000     0.206480000000    -0.000629573
S3       S      0.391430000000     0.679700000000     0.716180000000    -0.0160658  
S4       S      0.477030000000     0.383540000000     0.712630000000     0.0113149  
S5       S      0.802970000000     0.132810000000     0.550040000000     0.0176474  
S6       S      0.722210000000     0.693310000000     0.588960000000    -0.00503036 
S7       S      0.315130000000     0.388040000000     0.486250000000     0.0172182  
S8       S      0.410000000000     0.705160000000     0.473900000000     0.0100634  
S9       S      0.806730000000     0.564910000000     0.113230000000     0.00291827 
S10      S      0.131930000000     0.478850000000     0.209270000000     0.0130557  
S11      S      0.158690000000     0.610690000000     0.763590000000     0.0215864  
S12      S      0.785670000000     0.394900000000     0.805740000000    -0.0109536  
S13      S      0.617330000000     0.804540000000     0.972730000000     0.0123851  
S14      S      0.703080000000     0.112600000000     0.001810000000     0.00941073 
S15      S      0.201120000000     0.620690000000     0.993620000000     0.0098759  
S16      S      0.312030000000     0.116170000000     0.009450000000     0.00527874 
S17      S      0.796670000000     0.094160000000     0.716700000000    -0.0076498  
S18      S      0.405100000000     0.970220000000     0.811440000000     0.0104201  
S19      S      0.113220000000     0.035860000000     0.315260000000     0.0101938  
S20      S      0.811280000000     0.065490000000     0.397290000000     0.0121572  
S21      S      0.024020000000     0.103170000000     0.701930000000     0.00692304 
S22      S      0.067770000000     0.598290000000     0.809700000000     0.0100203  
S23      S      0.073500000000     0.630990000000     0.219050000000     0.00378765 
S24      S      0.139650000000     0.314370000000     0.235160000000    -0.032375   
Tb1      Tb     0.005670000000     0.004860000000     0.124360000000     6.52247    
Tb2      Tb     0.012490000000     0.890330000000     0.021900000000     4.34614    
Tb3      Tb     0.008750000000     0.113350000000     0.005850000000     6.02893    
Tb4      Tb     0.898270000000     0.002920000000     0.014280000000     4.40711    
Tb5      Tb     0.123700000000     0.000270000000     0.014700000000     6.07978    
Tb6      Tb     0.016040000000     0.998100000000     0.901490000000     3.40384    
Tb7      Tb     0.016100000000     0.509620000000     0.397040000000     6.3641     
Tb8      Tb     0.019490000000     0.614880000000     0.510370000000     4.26396    
Tb9      Tb     0.010420000000     0.392210000000     0.506210000000     6.24414    
Tb10     Tb     0.902490000000     0.505150000000     0.501950000000     4.40305    
Tb11     Tb     0.127710000000     0.502470000000     0.512270000000     6.71515    
Tb12     Tb     0.014980000000     0.496430000000     0.620760000000     3.01343    
Tb13     Tb     0.509530000000     0.013820000000     0.398310000000     6.35914    
Tb14     Tb     0.398300000000     0.005280000000     0.507110000000     4.29582    
Tb15     Tb     0.624490000000     0.010630000000     0.511590000000     6.35261    
Tb16     Tb     0.517580000000     0.897930000000     0.498850000000     4.37082    
Tb17     Tb     0.505190000000     0.119090000000     0.519050000000     6.36747    
Tb18     Tb     0.513840000000     0.004070000000     0.621620000000     3.20662    
Tb19     Tb     0.393250000000     0.508760000000     0.016530000000     6.42142    
Tb20     Tb     0.502030000000     0.617050000000     0.000560000000     4.40732    
Tb21     Tb     0.506430000000     0.394980000000     0.014660000000     6.2095     
Tb22     Tb     0.508220000000     0.510880000000     0.119690000000     4.34661    
Tb23     Tb     0.500270000000     0.502060000000     0.895580000000     6.21384    
Tb24     Tb     0.617950000000     0.503070000000     0.999470000000     3.33609    


