data_structure

_audit_creation_method RASPA-1.0
_audit_creation_date 2023-5-19
_audit_author_name 'Poobodin Mano'

_cell_length_a    26.6261
_cell_length_b    26.6159
_cell_length_c    26.6045
_cell_angle_alpha 90
_cell_angle_beta  90
_cell_angle_gamma 90
_cell_volume      18854

_symmetry_cell_setting          triclinic
_symmetry_space_group_name_Hall 'P 1'
_symmetry_space_group_name_H-M  'P 1'
_symmetry_Int_Tables_number     1

_symmetry_equiv_pos_as_xyz 'x,y,z'

loop_
_atom_site_label
_atom_site_type_symbol
_atom_site_fract_x
_atom_site_fract_y
_atom_site_fract_z
_atom_site_charge
C1       C      0.028410000000     0.127420000000     0.122900000000     0.674716   
C2       C      0.010120000000     0.894650000000     0.129660000000     0.63678    
C3       C      0.891490000000     0.020170000000     0.128600000000     0.625762   
C4       C      0.124870000000     0.024400000000     0.123790000000     0.688876   
C5       C      0.000250000000     0.892220000000     0.898470000000     0.501438   
C6       C      0.018410000000     0.122530000000     0.890650000000     0.615099   
C7       C      0.889630000000     0.897780000000     0.012710000000     0.533991   
C8       C      0.120690000000     0.889080000000     0.021740000000     0.654269   
C9       C      0.127280000000     0.121710000000     0.019750000000     0.67161    
C10      C      0.894710000000     0.129520000000     0.016730000000     0.652544   
C11      C      0.892060000000     0.007360000000     0.898120000000     0.525931   
C12      C      0.123380000000     0.008850000000     0.891430000000     0.607425   
C13      C      0.026020000000     0.395320000000     0.394300000000     0.67067    
C14      C      0.013250000000     0.628770000000     0.397430000000     0.638217   
C15      C      0.892250000000     0.508920000000     0.392980000000     0.629844   
C16      C      0.125280000000     0.495710000000     0.397900000000     0.688859   
C17      C      0.002780000000     0.621430000000     0.628380000000     0.50779    
C18      C      0.015530000000     0.390480000000     0.626310000000     0.611917   
C19      C      0.893590000000     0.623530000000     0.513880000000     0.542171   
C20      C      0.124920000000     0.627050000000     0.507030000000     0.647437   
C21      C      0.124130000000     0.395050000000     0.493910000000     0.673598   
C22      C      0.891820000000     0.392070000000     0.498050000000     0.642314   
C23      C      0.892710000000     0.510050000000     0.623900000000     0.528166   
C24      C      0.124170000000     0.498750000000     0.630220000000     0.604875   
C25      C      0.625560000000     0.024990000000     0.399000000000     0.681456   
C26      C      0.392610000000     0.014070000000     0.392160000000     0.62832    
C27      C      0.514330000000     0.890790000000     0.395870000000     0.63348    
C28      C      0.524710000000     0.124060000000     0.395750000000     0.689248   
C29      C      0.391650000000     0.007250000000     0.623320000000     0.527991   
C30      C      0.622510000000     0.017310000000     0.631260000000     0.600318   
C31      C      0.393320000000     0.895090000000     0.511920000000     0.546915   
C32      C      0.390520000000     0.125960000000     0.497380000000     0.646827   
C33      C      0.622750000000     0.125030000000     0.496320000000     0.670595   
C34      C      0.625030000000     0.892400000000     0.507040000000     0.639667   
C35      C      0.501120000000     0.896420000000     0.626390000000     0.525388   
C36      C      0.509780000000     0.127750000000     0.628150000000     0.604793   
C37      C      0.396720000000     0.390960000000     0.000110000000     0.675689   
C38      C      0.389100000000     0.624200000000     0.012600000000     0.637948   
C39      C      0.394990000000     0.500780000000     0.131720000000     0.63212    
C40      C      0.392150000000     0.491940000000     0.898460000000     0.6861     
C41      C      0.620110000000     0.627960000000     0.012830000000     0.519213   
C42      C      0.629250000000     0.397140000000     0.000990000000     0.614209   
C43      C      0.511370000000     0.623840000000     0.126800000000     0.547116   
C44      C      0.494090000000     0.628620000000     0.895940000000     0.642888   
C45      C      0.494320000000     0.396090000000     0.895360000000     0.681077   
C46      C      0.508610000000     0.392270000000     0.128000000000     0.645248   
C47      C      0.625080000000     0.515520000000     0.123460000000     0.529498   
C48      C      0.624050000000     0.508000000000     0.891850000000     0.605443   
C49      C      0.502600000000     0.325780000000     0.253880000000    -0.0905878  
C50      C      0.521590000000     0.277910000000     0.241830000000     0.0320491  
C51      C      0.535640000000     0.268070000000     0.191810000000    -0.0945268  
C52      C      0.530510000000     0.304910000000     0.154800000000     0.0751929  
C53      C      0.511830000000     0.352760000000     0.166960000000    -0.188155   
C54      C      0.498050000000     0.362870000000     0.216920000000     0.0674301  
C55      C      0.525690000000     0.238050000000     0.280940000000     0.0378124  
C56      C      0.539200000000     0.249990000000     0.330680000000    -0.099161   
C57      C      0.540330000000     0.212790000000     0.367810000000     0.0788298  
C58      C      0.528430000000     0.162730000000     0.355930000000    -0.207964   
C59      C      0.516620000000     0.150500000000     0.305920000000     0.0833794  
C60      C      0.514960000000     0.187700000000     0.268990000000    -0.101435   
C61      C      0.530790000000     0.826560000000     0.270020000000    -0.0968503  
C62      C      0.518100000000     0.776560000000     0.281520000000     0.0366854  
C63      C      0.505090000000     0.764400000000     0.331300000000    -0.0939364  
C64      C      0.504490000000     0.801360000000     0.368540000000     0.0688372  
C65      C      0.516360000000     0.851430000000     0.356760000000    -0.1908     
C66      C      0.529660000000     0.863610000000     0.307140000000     0.0750383  
C67      C      0.517460000000     0.737480000000     0.241600000000     0.0269452  
C68      C      0.500290000000     0.749130000000     0.192990000000    -0.0839565  
C69      C      0.498880000000     0.712360000000     0.155630000000     0.0539708  
C70      C      0.514040000000     0.662910000000     0.166140000000    -0.158295   
C71      C      0.531310000000     0.651150000000     0.214630000000     0.0544061  
C72      C      0.533240000000     0.688090000000     0.251880000000    -0.0835313  
C73      C      0.477180000000     0.832660000000     0.751690000000    -0.0781693  
C74      C      0.490880000000     0.782600000000     0.741440000000     0.0253715  
C75      C      0.507200000000     0.770400000000     0.692610000000    -0.0803673  
C76      C      0.509880000000     0.807170000000     0.655180000000     0.0516822  
C77      C      0.496970000000     0.857260000000     0.665750000000    -0.146725   
C78      C      0.480470000000     0.869570000000     0.714400000000     0.0473431  
C79      C      0.489260000000     0.743490000000     0.781640000000     0.037559   
C80      C      0.502020000000     0.755490000000     0.831570000000    -0.092485   
C81      C      0.502360000000     0.718480000000     0.868860000000     0.0695397  
C82      C      0.490570000000     0.668370000000     0.857100000000    -0.187118   
C83      C      0.477130000000     0.656370000000     0.807450000000     0.0745021  
C84      C      0.476170000000     0.693510000000     0.770270000000    -0.095462   
C85      C      0.484120000000     0.252340000000     0.691510000000    -0.0915043  
C86      C      0.497660000000     0.242310000000     0.741620000000     0.0300022  
C87      C      0.516010000000     0.194250000000     0.753840000000    -0.0861071  
C88      C      0.520310000000     0.157100000000     0.716960000000     0.0595078  
C89      C      0.506990000000     0.167380000000     0.666930000000    -0.176408   
C90      C      0.489060000000     0.215440000000     0.654550000000     0.0707644  
C91      C      0.493680000000     0.282140000000     0.780700000000     0.03846    
C92      C      0.504910000000     0.332390000000     0.768830000000    -0.101155   
C93      C      0.503230000000     0.369580000000     0.805740000000     0.0829795  
C94      C      0.490950000000     0.357390000000     0.855640000000    -0.20536    
C95      C      0.478660000000     0.307440000000     0.867470000000     0.0774455  
C96      C      0.479750000000     0.270270000000     0.830340000000    -0.0986209  
C97      C      0.687620000000     0.251650000000     0.498870000000    -0.0989114  
C98      C      0.737180000000     0.239070000000     0.485540000000     0.0364095  
C99      C      0.748100000000     0.188770000000     0.473280000000    -0.0966399  
C100     C      0.710830000000     0.151820000000     0.475870000000     0.0741663  
C101     C      0.661620000000     0.164380000000     0.490290000000    -0.200976   
C102     C      0.650280000000     0.214850000000     0.500900000000     0.0796796  
C103     C      0.777510000000     0.277940000000     0.486370000000     0.0324058  
C104     C      0.767390000000     0.327840000000     0.472010000000    -0.0904383  
C105     C      0.804500000000     0.364850000000     0.475610000000     0.0671844  
C106     C      0.852810000000     0.352750000000     0.493080000000    -0.18698    
C107     C      0.863340000000     0.302750000000     0.506350000000     0.0738552  
C108     C      0.826100000000     0.265880000000     0.503320000000    -0.0934388  
C109     C      0.829040000000     0.749650000000     0.499640000000    -0.0824349  
C110     C      0.778960000000     0.738050000000     0.511880000000     0.0266352  
C111     C      0.767140000000     0.688350000000     0.525620000000    -0.0820864  
C112     C      0.804320000000     0.651200000000     0.526580000000     0.0522517  
C113     C      0.854300000000     0.662960000000     0.514330000000    -0.154843   
C114     C      0.866260000000     0.712680000000     0.501140000000     0.0521256  
C115     C      0.739360000000     0.777660000000     0.510240000000     0.0365216  
C116     C      0.750310000000     0.827260000000     0.524930000000    -0.0950426  
C117     C      0.713410000000     0.864540000000     0.523130000000     0.0747287  
C118     C      0.664420000000     0.853110000000     0.507180000000    -0.186297   
C119     C      0.653280000000     0.803600000000     0.492570000000     0.0675601  
C120     C      0.690370000000     0.766380000000     0.493830000000    -0.0919167  
C121     C      0.327300000000     0.250930000000     0.471910000000    -0.0945114  
C122     C      0.276820000000     0.240340000000     0.483510000000     0.0326979  
C123     C      0.263990000000     0.191150000000     0.498090000000    -0.0916896  
C124     C      0.300730000000     0.153820000000     0.501720000000     0.0688241  
C125     C      0.351300000000     0.164910000000     0.491480000000    -0.18872    
C126     C      0.364120000000     0.213760000000     0.476150000000     0.074427   
C127     C      0.238150000000     0.280820000000     0.482580000000     0.0361934  
C128     C      0.250300000000     0.329760000000     0.498420000000    -0.0992508  
C129     C      0.213590000000     0.367140000000     0.500510000000     0.0802486  
C130     C      0.163590000000     0.356420000000     0.487450000000    -0.20156    
C131     C      0.151490000000     0.307900000000     0.470480000000     0.0746525  
C132     C      0.188400000000     0.270600000000     0.467820000000    -0.0970559  
C133     C      0.189030000000     0.753250000000     0.520890000000    -0.0939437  
C134     C      0.239150000000     0.741510000000     0.508930000000     0.0374446  
C135     C      0.251080000000     0.691800000000     0.495500000000    -0.0968007  
C136     C      0.213970000000     0.654690000000     0.494620000000     0.0764104  
C137     C      0.163970000000     0.666540000000     0.506610000000    -0.190481   
C138     C      0.151840000000     0.716280000000     0.519440000000     0.0711345  
C139     C      0.278720000000     0.780990000000     0.510360000000     0.0267579  
C140     C      0.267970000000     0.830310000000     0.494750000000    -0.0834498  
C141     C      0.304990000000     0.867420000000     0.496000000000     0.0538101  
C142     C      0.353870000000     0.856000000000     0.512310000000    -0.157655   
C143     C      0.364780000000     0.806780000000     0.527910000000     0.0537698  
C144     C      0.327550000000     0.769750000000     0.527220000000    -0.0829293  
C145     C      0.829030000000     0.500460000000     0.265560000000    -0.0957877  
C146     C      0.779410000000     0.514580000000     0.277110000000     0.0368442  
C147     C      0.767580000000     0.527030000000     0.327130000000    -0.0934892  
C148     C      0.804100000000     0.524730000000     0.364690000000     0.0682445  
C149     C      0.853590000000     0.510600000000     0.353100000000    -0.188615   
C150     C      0.865770000000     0.498780000000     0.303090000000     0.0732962  
C151     C      0.739900000000     0.515590000000     0.237500000000     0.0258137  
C152     C      0.751050000000     0.531230000000     0.188190000000    -0.07936    
C153     C      0.713830000000     0.531430000000     0.151060000000     0.0479541  
C154     C      0.664530000000     0.516530000000     0.162580000000    -0.149467   
C155     C      0.653280000000     0.501350000000     0.211890000000     0.0540732  
C156     C      0.690530000000     0.500560000000     0.248760000000    -0.0821315  
C157     C      0.251200000000     0.474110000000     0.334830000000    -0.09924    
C158     C      0.240730000000     0.487800000000     0.284800000000     0.0376564  
C159     C      0.191400000000     0.501910000000     0.272200000000    -0.101721   
C160     C      0.153760000000     0.503030000000     0.308660000000     0.0833731  
C161     C      0.164560000000     0.490720000000     0.358870000000    -0.209002   
C162     C      0.213580000000     0.475760000000     0.371500000000     0.0786169  
C163     C      0.281110000000     0.488890000000     0.246080000000     0.0315187  
C164     C      0.329920000000     0.505080000000     0.258390000000    -0.0909188  
C165     C      0.367130000000     0.508340000000     0.221440000000     0.0661393  
C166     C      0.356220000000     0.496080000000     0.171250000000    -0.18852    
C167     C      0.307710000000     0.479310000000     0.159010000000     0.0734195  
C168     C      0.270730000000     0.475440000000     0.196010000000    -0.0947321  
C169     C      0.250130000000     0.502470000000     0.696460000000    -0.090443   
C170     C      0.237800000000     0.485330000000     0.744960000000     0.0293697  
C171     C      0.187650000000     0.471930000000     0.755030000000    -0.0855562  
C172     C      0.150740000000     0.476350000000     0.717870000000     0.0585265  
C173     C      0.163180000000     0.493750000000     0.669570000000    -0.175031   
C174     C      0.213370000000     0.506340000000     0.659180000000     0.0691517  
C175     C      0.276810000000     0.483120000000     0.785150000000     0.038509   
C176     C      0.326740000000     0.469920000000     0.773770000000    -0.0990344  
C177     C      0.364020000000     0.471560000000     0.810780000000     0.0780556  
C178     C      0.352170000000     0.485920000000     0.860210000000    -0.207887   
C179     C      0.301990000000     0.497210000000     0.872100000000     0.0824083  
C180     C      0.264850000000     0.496120000000     0.835010000000    -0.100746   
C181     C      0.687700000000     0.523330000000     0.765430000000    -0.0927703  
C182     C      0.737400000000     0.509060000000     0.776460000000     0.0351293  
C183     C      0.749010000000     0.493500000000     0.825640000000    -0.0881486  
C184     C      0.712160000000     0.492980000000     0.862970000000     0.0613934  
C185     C      0.662640000000     0.507440000000     0.851920000000    -0.176603   
C186     C      0.650680000000     0.522240000000     0.802670000000     0.070773   
C187     C      0.777000000000     0.510400000000     0.736970000000     0.0270266  
C188     C      0.765880000000     0.496940000000     0.687060000000    -0.0817686  
C189     C      0.803250000000     0.497590000000     0.650200000000     0.0533005  
C190     C      0.852760000000     0.511140000000     0.662490000000    -0.149021   
C191     C      0.863910000000     0.524880000000     0.712230000000     0.0491473  
C192     C      0.826420000000     0.524810000000     0.748960000000    -0.0794961  
C193     C      0.822820000000     0.772500000000     0.026720000000    -0.0840895  
C194     C      0.773010000000     0.784490000000     0.013600000000     0.0312975  
C195     C      0.761890000000     0.834540000000     0.000440000000    -0.0863515  
C196     C      0.799540000000     0.871400000000     0.000260000000     0.0464482  
C197     C      0.849360000000     0.859070000000     0.012820000000    -0.150937   
C198     C      0.860440000000     0.809140000000     0.026050000000     0.0507405  
C199     C      0.733280000000     0.744700000000     0.013220000000     0.0220374  
C200     C      0.744940000000     0.695350000000     0.998190000000    -0.0744275  
C201     C      0.708350000000     0.657700000000     0.998510000000     0.0507752  
C202     C      0.658770000000     0.668290000000     0.013300000000    -0.148256   
C203     C      0.646750000000     0.717650000000     0.027870000000     0.0479908  
C204     C      0.683590000000     0.755340000000     0.028040000000    -0.079099   
C205     C      0.770840000000     0.197350000000     0.028620000000    -0.0946144  
C206     C      0.783040000000     0.245140000000     0.009720000000     0.0332574  
C207     C      0.832680000000     0.254990000000     0.994800000000    -0.0940151  
C208     C      0.869240000000     0.217700000000     0.998250000000     0.0850233  
C209     C      0.856770000000     0.169680000000     0.016190000000    -0.198874   
C210     C      0.807310000000     0.159890000000     0.031580000000     0.0730184  
C211     C      0.744070000000     0.284540000000     0.005480000000     0.0293243  
C212     C      0.695160000000     0.272160000000     0.989960000000    -0.0899743  
C213     C      0.658020000000     0.308970000000     0.987570000000     0.0780855  
C214     C      0.669190000000     0.358960000000     0.000170000000    -0.186348   
C215     C      0.718370000000     0.371630000000     0.014430000000     0.0650027  
C216     C      0.755380000000     0.334730000000     0.017310000000    -0.0895363  
C217     C      0.320470000000     0.747590000000     0.001180000000    -0.108681   
C218     C      0.272850000000     0.735250000000     0.020350000000     0.0392969  
C219     C      0.263510000000     0.685710000000     0.036050000000    -0.101197   
C220     C      0.301090000000     0.649360000000     0.032850000000     0.0797525  
C221     C      0.348850000000     0.662010000000     0.014360000000    -0.203488   
C222     C      0.358170000000     0.711420000000     0.998480000000     0.0865926  
C223     C      0.233100000000     0.773990000000     0.023520000000     0.0352482  
C224     C      0.245170000000     0.823440000000     0.037520000000    -0.0982407  
C225     C      0.208390000000     0.860660000000     0.037800000000     0.0802099  
C226     C      0.158680000000     0.849060000000     0.024610000000    -0.196096   
C227     C      0.146150000000     0.799330000000     0.012240000000     0.0751481  
C228     C      0.183080000000     0.762180000000     0.011440000000    -0.100092   
C229     C      0.334070000000     0.263780000000     0.016940000000    -0.0925023  
C230     C      0.283290000000     0.274660000000     0.006800000000     0.0257102  
C231     C      0.270810000000     0.323890000000     0.991760000000    -0.0868654  
C232     C      0.307690000000     0.361310000000     0.988340000000     0.0685201  
C233     C      0.358200000000     0.350460000000     0.999290000000    -0.190384   
C234     C      0.371000000000     0.301030000000     0.012920000000     0.068604   
C235     C      0.243640000000     0.235020000000     0.012160000000     0.0370937  
C236     C      0.254010000000     0.184470000000     0.000390000000    -0.102122   
C237     C      0.216770000000     0.147540000000     0.004610000000     0.0732666  
C238     C      0.167860000000     0.160140000000     0.020080000000    -0.197578   
C239     C      0.157520000000     0.210420000000     0.032570000000     0.0724637  
C240     C      0.194950000000     0.247280000000     0.028950000000    -0.0970275  
C241     C      0.824890000000     0.994800000000     0.773220000000    -0.0738434  
C242     C      0.776160000000     0.011320000000     0.785330000000     0.0209253  
C243     C      0.765760000000     0.025330000000     0.835230000000    -0.0807092  
C244     C      0.803140000000     0.023120000000     0.871980000000     0.0532654  
C245     C      0.851990000000     0.007400000000     0.859620000000    -0.152516   
C246     C      0.862440000000     0.993130000000     0.809870000000     0.0529384  
C247     C      0.736420000000     0.014080000000     0.746070000000     0.0373062  
C248     C      0.748250000000     0.029010000000     0.696740000000    -0.0940053  
C249     C      0.711170000000     0.030600000000     0.659620000000     0.0694449  
C250     C      0.661270000000     0.017830000000     0.671060000000    -0.174936   
C251     C      0.649160000000     0.003810000000     0.720510000000     0.0569234  
C252     C      0.686330000000     0.001680000000     0.757500000000    -0.0933489  
C253     C      0.325450000000     0.021300000000     0.748300000000    -0.0808825  
C254     C      0.276270000000     0.006020000000     0.736660000000     0.0227005  
C255     C      0.265360000000     0.990860000000     0.687160000000    -0.076775   
C256     C      0.302740000000     0.991200000000     0.650210000000     0.0563078  
C257     C      0.351890000000     0.006270000000     0.662110000000    -0.154564   
C258     C      0.362820000000     0.021160000000     0.711590000000     0.0502291  
C259     C      0.236700000000     0.006150000000     0.776110000000     0.031556   
C260     C      0.248320000000     0.992230000000     0.825780000000    -0.0894911  
C261     C      0.211630000000     0.993510000000     0.863220000000     0.0773448  
C262     C      0.162260000000     0.008150000000     0.851800000000    -0.182628   
C263     C      0.150370000000     0.021600000000     0.802120000000     0.0617996  
C264     C      0.187230000000     0.020820000000     0.764730000000    -0.0890892  
C265     C      0.189890000000     0.019710000000     0.250190000000    -0.102      
C266     C      0.240200000000     0.029410000000     0.237320000000     0.0367875  
C267     C      0.251860000000     0.039910000000     0.186780000000    -0.0996069  
C268     C      0.214330000000     0.039420000000     0.149930000000     0.0779747  
C269     C      0.164250000000     0.028810000000     0.162870000000    -0.209982   
C270     C      0.152410000000     0.019730000000     0.213540000000     0.0830926  
C271     C      0.280220000000     0.027220000000     0.276430000000     0.0318853  
C272     C      0.270550000000     0.043830000000     0.325690000000    -0.0912951  
C273     C      0.306980000000     0.039280000000     0.363150000000     0.0664296  
C274     C      0.354290000000     0.018650000000     0.352180000000    -0.186103   
C275     C      0.364570000000     0.003080000000     0.302790000000     0.0649751  
C276     C      0.327840000000     0.007020000000     0.265390000000    -0.0972513  
C277     C      0.752160000000     0.018810000000     0.334430000000    -0.100447   
C278     C      0.740210000000     0.033570000000     0.285060000000     0.0369826  
C279     C      0.690550000000     0.048330000000     0.274410000000    -0.0988051  
C280     C      0.653510000000     0.046580000000     0.311630000000     0.0769472  
C281     C      0.665350000000     0.030620000000     0.360560000000    -0.207085   
C282     C      0.715270000000     0.017690000000     0.371770000000     0.0811278  
C283     C      0.778920000000     0.031770000000     0.244570000000     0.030977   
C284     C      0.829450000000     0.043490000000     0.254810000000    -0.0933743  
C285     C      0.866010000000     0.039600000000     0.217260000000     0.0709738  
C286     C      0.852850000000     0.024510000000     0.168390000000    -0.186639   
C287     C      0.802310000000     0.013550000000     0.157860000000     0.0650095  
C288     C      0.765880000000     0.016820000000     0.195530000000    -0.090692   
C289     C      0.009640000000     0.323820000000     0.751040000000    -0.0945501  
C290     C      0.025090000000     0.275110000000     0.737870000000     0.0342099  
C291     C      0.037970000000     0.264750000000     0.687730000000    -0.0949673  
C292     C      0.034850000000     0.302270000000     0.651340000000     0.0731738  
C293     C      0.019200000000     0.350870000000     0.664570000000    -0.181827   
C294     C      0.006980000000     0.361400000000     0.714800000000     0.060464   
C295     C      0.026310000000     0.235050000000     0.776240000000     0.034478   
C296     C      0.042920000000     0.245570000000     0.825230000000    -0.0953152  
C297     C      0.040830000000     0.208770000000     0.862340000000     0.0745753  
C298     C      0.022600000000     0.160620000000     0.850980000000    -0.182383   
C299     C      0.007460000000     0.149540000000     0.801670000000     0.0606325  
C300     C      0.009050000000     0.186530000000     0.764670000000    -0.0945328  
C301     C      0.009690000000     0.825430000000     0.772310000000    -0.0807668  
C302     C      0.996030000000     0.775750000000     0.784330000000     0.0306127  
C303     C      0.983130000000     0.764930000000     0.834600000000    -0.0762702  
C304     C      0.984310000000     0.802520000000     0.871640000000     0.0424372  
C305     C      0.997960000000     0.852090000000     0.859390000000    -0.127222   
C306     C      0.010380000000     0.863000000000     0.809140000000     0.0366544  
C307     C      0.996020000000     0.735580000000     0.744670000000     0.0312708  
C308     C      0.982800000000     0.746760000000     0.694590000000    -0.0776788  
C309     C      0.984810000000     0.709840000000     0.657070000000     0.0445547  
C310     C      0.999540000000     0.660400000000     0.668530000000    -0.130246   
C311     C      0.011750000000     0.648820000000     0.718680000000     0.0368485  
C312     C      0.010270000000     0.685890000000     0.756130000000    -0.0813088  
C313     C      0.998910000000     0.831820000000     0.256370000000    -0.0918876  
C314     C      0.014890000000     0.782750000000     0.245210000000     0.0304992  
C315     C      0.030160000000     0.771190000000     0.196010000000    -0.0944536  
C316     C      0.028590000000     0.807630000000     0.158510000000     0.072096   
C317     C      0.012210000000     0.856520000000     0.169580000000    -0.198889   
C318     C      0.997810000000     0.868470000000     0.218910000000     0.0806497  
C319     C      0.014800000000     0.743380000000     0.284430000000     0.0309275  
C320     C      0.029980000000     0.754460000000     0.333790000000    -0.0943767  
C321     C      0.029440000000     0.717220000000     0.370670000000     0.0714735  
C322     C      0.014100000000     0.668170000000     0.358710000000    -0.200158   
C323     C      0.999120000000     0.657060000000     0.309360000000     0.0823104  
C324     C      0.999220000000     0.694340000000     0.272670000000    -0.0933232  
C325     C      0.050950000000     0.332720000000     0.267770000000    -0.0948429  
C326     C      0.039780000000     0.281920000000     0.277970000000     0.0332319  
C327     C      0.026000000000     0.268960000000     0.327440000000    -0.0969715  
C328     C      0.022830000000     0.305510000000     0.365170000000     0.0757392  
C329     C      0.032670000000     0.356360000000     0.354590000000    -0.199289   
C330     C      0.047180000000     0.369440000000     0.305470000000     0.0707574  
C331     C      0.040640000000     0.242880000000     0.237180000000     0.0336833  
C332     C      0.026210000000     0.254930000000     0.187650000000    -0.0971143  
C333     C      0.023900000000     0.217840000000     0.150290000000     0.0761639  
C334     C      0.035300000000     0.167440000000     0.161440000000    -0.201351   
C335     C      0.050930000000     0.155460000000     0.210490000000     0.0722372  
C336     C      0.053890000000     0.192660000000     0.247690000000    -0.0957444  
H1       H      0.971850000000     0.975880000000     0.049920000000    -1.2226     
H2       H      0.039760000000     0.039620000000     0.040010000000    -1.06577    
H3       H      0.965170000000     0.094780000000     0.964440000000    -0.525633   
H4       H      0.091200000000     0.960410000000     0.966310000000    -0.536345   
H5       H      0.973630000000     0.545100000000     0.473740000000    -1.22597    
H6       H      0.039490000000     0.479380000000     0.480920000000    -1.05868    
H7       H      0.962840000000     0.422730000000     0.553750000000    -0.510981   
H8       H      0.093180000000     0.553680000000     0.558410000000    -0.538458   
H9       H      0.473230000000     0.973770000000     0.472890000000    -1.24292    
H10      H      0.538820000000     0.039930000000     0.481460000000    -1.0456     
H11      H      0.592200000000     0.965020000000     0.558170000000    -0.510856   
H12      H      0.461090000000     0.095370000000     0.554000000000    -0.529524   
H13      H      0.470730000000     0.544200000000     0.048040000000    -1.23553    
H14      H      0.478820000000     0.479190000000     0.981230000000    -1.05607    
H15      H      0.556910000000     0.426070000000     0.054570000000    -0.53099    
H16      H      0.550340000000     0.557740000000     0.925450000000    -0.534628   
H17      H      0.551240000000     0.232020000000     0.181220000000     0.0494577  
H18      H      0.542150000000     0.296070000000     0.116800000000     0.0173431  
H19      H      0.483320000000     0.399320000000     0.227460000000     0.023426   
H20      H      0.490510000000     0.334490000000     0.291750000000     0.0495779  
H21      H      0.548740000000     0.288140000000     0.341070000000     0.051112   
H22      H      0.550040000000     0.223410000000     0.405900000000     0.0196373  
H23      H      0.506880000000     0.112400000000     0.295430000000     0.0147217  
H24      H      0.503710000000     0.177080000000     0.231350000000     0.0507571  
H25      H      0.494320000000     0.726490000000     0.341390000000     0.0503828  
H26      H      0.493770000000     0.790760000000     0.406360000000     0.0208246  
H27      H      0.539540000000     0.901750000000     0.296930000000     0.0154893  
H28      H      0.541920000000     0.837120000000     0.232320000000     0.0509428  
H29      H      0.486980000000     0.786490000000     0.183930000000     0.0476386  
H30      H      0.484970000000     0.722580000000     0.118760000000     0.0246348  
H31      H      0.543780000000     0.613500000000     0.223780000000     0.0279243  
H32      H      0.547510000000     0.677980000000     0.288630000000     0.048371   
H33      H      0.518980000000     0.732580000000     0.683380000000     0.0477512  
H34      H      0.523090000000     0.796430000000     0.618200000000     0.0271754  
H35      H      0.469660000000     0.907700000000     0.723660000000     0.0303118  
H36      H      0.463530000000     0.843400000000     0.788480000000     0.0481922  
H37      H      0.513090000000     0.793290000000     0.841750000000     0.0517811  
H38      H      0.513230000000     0.728990000000     0.906670000000     0.0225429  
H39      H      0.467330000000     0.618230000000     0.797200000000     0.0165854  
H40      H      0.465090000000     0.682930000000     0.732580000000     0.050798   
H41      H      0.527740000000     0.185400000000     0.791790000000     0.0490444  
H42      H      0.534480000000     0.120460000000     0.727620000000     0.0243405  
H43      H      0.477780000000     0.224360000000     0.616460000000     0.0189051  
H44      H      0.469010000000     0.288560000000     0.680800000000     0.0491453  
H45      H      0.516540000000     0.342940000000     0.731290000000     0.0514391  
H46      H      0.513310000000     0.407610000000     0.795340000000     0.016644   
H47      H      0.468590000000     0.296910000000     0.905490000000     0.0201136  
H48      H      0.469810000000     0.232190000000     0.840640000000     0.0514272  
H49      H      0.785550000000     0.177810000000     0.461830000000     0.0505133  
H50      H      0.720680000000     0.113390000000     0.466800000000     0.0211921  
H51      H      0.612830000000     0.225870000000     0.512360000000     0.0171377  
H52      H      0.677810000000     0.289720000000     0.509310000000     0.0511615  
H53      H      0.730760000000     0.338430000000     0.457860000000     0.0497073  
H54      H      0.795320000000     0.402910000000     0.464480000000     0.0241604  
H55      H      0.900110000000     0.292180000000     0.520230000000     0.0181716  
H56      H      0.835170000000     0.228150000000     0.515550000000     0.0502673  
H57      H      0.729220000000     0.678130000000     0.536160000000     0.0482331  
H58      H      0.793860000000     0.613350000000     0.537260000000     0.0280788  
H59      H      0.904270000000     0.723000000000     0.490930000000     0.0266285  
H60      H      0.839520000000     0.787190000000     0.487990000000     0.0482739  
H61      H      0.787260000000     0.837280000000     0.538650000000     0.0516323  
H62      H      0.723170000000     0.902170000000     0.535180000000     0.0187329  
H63      H      0.615970000000     0.793600000000     0.479770000000     0.0238706  
H64      H      0.680700000000     0.728890000000     0.481370000000     0.0504419  
H65      H      0.225740000000     0.181660000000     0.508120000000     0.0494288  
H66      H      0.289590000000     0.116580000000     0.513780000000     0.0207428  
H67      H      0.402650000000     0.223370000000     0.467280000000     0.016962   
H68      H      0.338500000000     0.288030000000     0.459540000000     0.0496308  
H69      H      0.287910000000     0.338980000000     0.510850000000     0.0507704  
H70      H      0.224200000000     0.404040000000     0.514000000000     0.0173361  
H71      H      0.113420000000     0.298580000000     0.459520000000     0.0207054  
H72      H      0.177830000000     0.233680000000     0.454420000000     0.04996    
H73      H      0.289050000000     0.681540000000     0.485140000000     0.0507034  
H74      H      0.224500000000     0.616790000000     0.484200000000     0.0160413  
H75      H      0.113750000000     0.726590000000     0.529350000000     0.0208441  
H76      H      0.178530000000     0.790880000000     0.532220000000     0.0512363  
H77      H      0.231110000000     0.840210000000     0.480690000000     0.0482488  
H78      H      0.295430000000     0.904850000000     0.483200000000     0.0255205  
H79      H      0.401990000000     0.796860000000     0.541090000000     0.0276965  
H80      H      0.336990000000     0.732440000000     0.540400000000     0.0481558  
H81      H      0.730110000000     0.539090000000     0.337340000000     0.0505482  
H82      H      0.793590000000     0.534730000000     0.402730000000     0.0210142  
H83      H      0.903540000000     0.487520000000     0.292980000000     0.0156877  
H84      H      0.839400000000     0.489850000000     0.227670000000     0.0508757  
H85      H      0.788430000000     0.543820000000     0.178290000000     0.0472498  
H86      H      0.723620000000     0.543640000000     0.113470000000     0.027838   
H87      H      0.615830000000     0.489020000000     0.221960000000     0.0273623  
H88      H      0.680670000000     0.487270000000     0.285930000000     0.0480542  
H89      H      0.181980000000     0.513530000000     0.234360000000     0.050464   
H90      H      0.116480000000     0.515030000000     0.297620000000     0.0141354  
H91      H      0.223020000000     0.465510000000     0.409760000000     0.0200756  
H92      H      0.288500000000     0.462130000000     0.345740000000     0.0509633  
H93      H      0.339170000000     0.516480000000     0.296340000000     0.0493018  
H94      H      0.404130000000     0.521530000000     0.232060000000     0.0204005  
H95      H      0.298270000000     0.468820000000     0.120810000000     0.0153837  
H96      H      0.233960000000     0.461780000000     0.185260000000     0.0488675  
H97      H      0.176820000000     0.457740000000     0.791600000000     0.0484268  
H98      H      0.112520000000     0.465720000000     0.726930000000     0.0251251  
H99      H      0.224200000000     0.520140000000     0.622440000000     0.0187868  
H100     H      0.288060000000     0.514070000000     0.687440000000     0.0490777  
H101     H      0.337220000000     0.458600000000     0.736110000000     0.0508791  
H102     H      0.402210000000     0.462010000000     0.800480000000     0.0198654  
H103     H      0.291540000000     0.508650000000     0.909750000000     0.0152566  
H104     H      0.227060000000     0.507170000000     0.845200000000     0.05186    
H105     H      0.786550000000     0.481210000000     0.835330000000     0.050998   
H106     H      0.722480000000     0.480850000000     0.900450000000     0.0262438  
H107     H      0.612940000000     0.533980000000     0.793030000000     0.0186884  
H108     H      0.677490000000     0.536220000000     0.728210000000     0.05044    
H109     H      0.728480000000     0.484920000000     0.676540000000     0.0479709  
H110     H      0.793470000000     0.486430000000     0.612280000000     0.0266837  
H111     H      0.901570000000     0.536090000000     0.722820000000     0.0297942  
H112     H      0.836200000000     0.536450000000     0.786710000000     0.0489904  
H113     H      0.724220000000     0.845210000000     0.989420000000     0.0531499  
H114     H      0.789640000000     0.909430000000     0.989650000000     0.0333439  
H115     H      0.898210000000     0.798260000000     0.036570000000     0.0264969  
H116     H      0.832840000000     0.734780000000     0.038160000000     0.0479577  
H117     H      0.782340000000     0.685740000000     0.985440000000     0.0486913  
H118     H      0.718980000000     0.620310000000     0.986440000000     0.0307705  
H119     H      0.609000000000     0.727130000000     0.039730000000     0.0290209  
H120     H      0.673210000000     0.792630000000     0.040530000000     0.0469047  
H121     H      0.843130000000     0.291200000000     0.979460000000     0.0526471  
H122     H      0.906970000000     0.226240000000     0.985630000000     0.0179967  
H123     H      0.796710000000     0.123310000000     0.045980000000     0.0220681  
H124     H      0.733150000000     0.188910000000     0.041370000000     0.0500884  
H125     H      0.685550000000     0.234010000000     0.979580000000     0.0508327  
H126     H      0.620530000000     0.298150000000     0.976000000000     0.0179435  
H127     H      0.728050000000     0.409780000000     0.024780000000     0.0239295  
H128     H      0.792540000000     0.345370000000     0.029980000000     0.0495114  
H129     H      0.227410000000     0.675170000000     0.051560000000     0.0504989  
H130     H      0.292970000000     0.611630000000     0.045780000000     0.0123512  
H131     H      0.394490000000     0.722140000000     0.983550000000     0.0211624  
H132     H      0.328550000000     0.785150000000     0.987750000000     0.0578324  
H133     H      0.283120000000     0.833490000000     0.048150000000     0.0506405  
H134     H      0.219040000000     0.898560000000     0.048150000000     0.0158473  
H135     H      0.108150000000     0.789330000000     0.001670000000     0.0181009  
H136     H      0.172670000000     0.724550000000     0.999980000000     0.0554051  
H137     H      0.232460000000     0.333670000000     0.982450000000     0.04866    
H138     H      0.296480000000     0.398870000000     0.977380000000     0.020629   
H139     H      0.409410000000     0.291320000000     0.022150000000     0.0183454  
H140     H      0.345350000000     0.226720000000     0.029330000000     0.0478085  
H141     H      0.290630000000     0.173390000000     0.986630000000     0.0542502  
H142     H      0.226050000000     0.109320000000     0.994150000000     0.0209067  
H143     H      0.120370000000     0.221460000000     0.044970000000     0.0199193  
H144     H      0.185600000000     0.285420000000     0.039530000000     0.0489077  
H145     H      0.728950000000     0.038990000000     0.845830000000     0.0475227  
H146     H      0.793920000000     0.034840000000     0.909870000000     0.027712   
H147     H      0.899590000000     0.980400000000     0.799210000000     0.03003    
H148     H      0.834050000000     0.982740000000     0.735440000000     0.0486302  
H149     H      0.786160000000     0.039840000000     0.686750000000     0.0500862  
H150     H      0.721700000000     0.041970000000     0.621970000000     0.0182147  
H151     H      0.611140000000     0.993310000000     0.730500000000     0.0297612  
H152     H      0.675900000000     0.989310000000     0.794840000000     0.0553739  
H153     H      0.228080000000     0.978160000000     0.677020000000     0.0488015  
H154     H      0.293180000000     0.979190000000     0.612510000000     0.0290386  
H155     H      0.400160000000     0.033550000000     0.721980000000     0.0289201  
H156     H      0.335040000000     0.034170000000     0.785700000000     0.0471409  
H157     H      0.285740000000     0.979800000000     0.835760000000     0.0514668  
H158     H      0.221930000000     0.982370000000     0.901000000000     0.0196546  
H159     H      0.112710000000     0.033380000000     0.792170000000     0.0241411  
H160     H      0.177100000000     0.032530000000     0.727100000000     0.0490917  
H161     H      0.290000000000     0.048470000000     0.175590000000     0.0497285  
H162     H      0.224700000000     0.047010000000     0.111300000000     0.0183816  
H163     H      0.114320000000     0.011070000000     0.224920000000     0.013925   
H164     H      0.179460000000     0.010620000000     0.288460000000     0.0501914  
H165     H      0.234800000000     0.060620000000     0.335420000000     0.0489463  
H166     H      0.298150000000     0.052480000000     0.400640000000     0.0249521  
H167     H      0.400670000000     0.986940000000     0.293200000000     0.0185765  
H168     H      0.336460000000     0.993150000000     0.228120000000     0.0533943  
H169     H      0.680110000000     0.061040000000     0.237190000000     0.0503802  
H170     H      0.615510000000     0.057460000000     0.301930000000     0.0178298  
H171     H      0.725650000000     0.004970000000     0.409030000000     0.0154328  
H172     H      0.789710000000     0.006510000000     0.344030000000     0.0503562  
H173     H      0.840860000000     0.056000000000     0.291810000000     0.0492098  
H174     H      0.904530000000     0.048880000000     0.226490000000     0.0161262  
H175     H      0.790900000000     0.001490000000     0.120690000000     0.0201942  
H176     H      0.727630000000     0.006520000000     0.186320000000     0.0482841  
H177     H      0.050700000000     0.227720000000     0.676650000000     0.0497462  
H178     H      0.045030000000     0.293220000000     0.612970000000     0.0174589  
H179     H      0.994490000000     0.398460000000     0.726100000000     0.029257   
H180     H      0.998580000000     0.332730000000     0.789190000000     0.0554539  
H181     H      0.057370000000     0.282340000000     0.834990000000     0.0502239  
H182     H      0.053460000000     0.218110000000     0.899900000000     0.0183916  
H183     H      0.993070000000     0.112740000000     0.791900000000     0.0282152  
H184     H      0.995390000000     0.177480000000     0.727410000000     0.0550129  
H185     H      0.971620000000     0.727460000000     0.845430000000     0.0487111  
H186     H      0.974190000000     0.792700000000     0.909840000000     0.0323855  
H187     H      0.021570000000     0.900550000000     0.798160000000     0.0328619  
H188     H      0.020920000000     0.835360000000     0.734490000000     0.0472757  
H189     H      0.970540000000     0.784120000000     0.684200000000     0.0489484  
H190     H      0.974530000000     0.720110000000     0.619040000000     0.0323356  
H191     H      0.023500000000     0.611250000000     0.729000000000     0.030784   
H192     H      0.021460000000     0.675700000000     0.793900000000     0.0471289  
H193     H      0.043630000000     0.733990000000     0.186470000000     0.0495005  
H194     H      0.040630000000     0.797510000000     0.120950000000     0.0232245  
H195     H      0.984800000000     0.905840000000     0.228450000000     0.0147931  
H196     H      0.986300000000     0.841700000000     0.293790000000     0.0513436  
H197     H      0.042840000000     0.791740000000     0.343810000000     0.0499656  
H198     H      0.041550000000     0.726760000000     0.408350000000     0.0225486  
H199     H      0.986560000000     0.619730000000     0.299120000000     0.014385   
H200     H      0.986380000000     0.684860000000     0.235230000000     0.0511561  
H201     H      0.016160000000     0.230680000000     0.336970000000     0.0488825  
H202     H      0.011270000000     0.293910000000     0.402440000000     0.0171213  
H203     H      0.055600000000     0.408120000000     0.296020000000     0.0185364  
H204     H      0.062680000000     0.344300000000     0.230580000000     0.0486181  
H205     H      0.014990000000     0.292780000000     0.177880000000     0.0490286  
H206     H      0.011480000000     0.228500000000     0.113020000000     0.0156552  
H207     H      0.060650000000     0.117180000000     0.220320000000     0.0179996  
H208     H      0.066410000000     0.181830000000     0.284850000000     0.0487938  
O1       O      0.024830000000     0.141370000000     0.074790000000    -1.04057    
O2       O      0.009780000000     0.878320000000     0.082030000000    -0.779271   
O3       O      0.939970000000     0.017620000000     0.142750000000    -0.993492   
O4       O      0.077270000000     0.021490000000     0.139290000000    -1.06353    
O5       O      0.139390000000     0.020800000000     0.075890000000    -1.05915    
O6       O      0.875820000000     0.018790000000     0.080720000000    -0.775354   
O7       O      0.008690000000     0.943260000000     0.143400000000    -1.00305    
O8       O      0.023860000000     0.080000000000     0.138860000000    -1.04759    
O9       O      0.061640000000     0.961240000000     0.065470000000    -2.06632    
O10      O      0.962210000000     0.066980000000     0.064190000000    -2.0712     
O11      O      0.952960000000     0.958330000000     0.069940000000    -0.859734   
O12      O      0.019600000000     0.020470000000     0.021060000000    -2.55727    
O13      O      0.999860000000     0.878350000000     0.947390000000    -0.677362   
O14      O      0.018340000000     0.138520000000     0.938560000000    -0.933797   
O15      O      0.875700000000     0.946630000000     0.012490000000    -0.715139   
O16      O      0.137120000000     0.936710000000     0.018410000000    -0.955022   
O17      O      0.140740000000     0.073350000000     0.017190000000    -1.04086    
O18      O      0.878530000000     0.081900000000     0.018720000000    -0.76125    
O19      O      0.940070000000     0.007480000000     0.881900000000    -0.578113   
O20      O      0.075150000000     0.009330000000     0.877090000000    -0.619278   
O21      O      0.877720000000     0.009480000000     0.946700000000    -0.703967   
O22      O      0.138640000000     0.007450000000     0.939640000000    -0.927937   
O23      O      0.937580000000     0.881250000000     0.014020000000    -0.721333   
O24      O      0.943180000000     0.142950000000     0.012540000000    -0.947565   
O25      O      0.079750000000     0.137940000000     0.018760000000    -1.0382     
O26      O      0.072200000000     0.875680000000     0.020720000000    -0.759885   
O27      O      0.004500000000     0.940050000000     0.882200000000    -0.573285   
O28      O      0.013750000000     0.074460000000     0.876670000000    -0.625742   
O29      O      0.062950000000     0.060310000000     0.961170000000    -1.99257    
O30      O      0.960430000000     0.964220000000     0.966130000000    -1.57727    
O31      O      0.954260000000     0.062390000000     0.955880000000    -1.22104    
O32      O      0.058360000000     0.951560000000     0.957160000000    -1.22584    
O33      O      0.021920000000     0.379600000000     0.441810000000    -1.02811    
O34      O      0.013740000000     0.643170000000     0.445690000000    -0.77744    
O35      O      0.940820000000     0.510000000000     0.378990000000    -0.993564   
O36      O      0.077820000000     0.500340000000     0.382430000000    -1.0644     
O37      O      0.139820000000     0.497520000000     0.445880000000    -1.05014    
O38      O      0.876490000000     0.507750000000     0.440840000000    -0.784541   
O39      O      0.011040000000     0.580780000000     0.381800000000    -1.00751    
O40      O      0.022680000000     0.443460000000     0.380230000000    -1.04052    
O41      O      0.063830000000     0.558270000000     0.458690000000    -2.07514    
O42      O      0.961300000000     0.455190000000     0.455190000000    -2.0755     
O43      O      0.955290000000     0.564060000000     0.454500000000    -0.866139   
O44      O      0.019800000000     0.498260000000     0.500610000000    -2.55301    
O45      O      0.003070000000     0.637200000000     0.580080000000    -0.691976   
O46      O      0.015240000000     0.376550000000     0.577740000000    -0.93139    
O47      O      0.878330000000     0.575160000000     0.512230000000    -0.728796   
O48      O      0.140000000000     0.578850000000     0.508230000000    -0.951103   
O49      O      0.139030000000     0.442640000000     0.499540000000    -1.04768    
O50      O      0.877060000000     0.440250000000     0.498700000000    -0.762583   
O51      O      0.940670000000     0.507780000000     0.640100000000    -0.577625   
O52      O      0.075930000000     0.500040000000     0.644670000000    -0.615357   
O53      O      0.878310000000     0.509850000000     0.575270000000    -0.713383   
O54      O      0.139410000000     0.502260000000     0.582130000000    -0.932584   
O55      O      0.941910000000     0.638950000000     0.513290000000    -0.721215   
O56      O      0.939900000000     0.377240000000     0.502490000000    -0.932538   
O57      O      0.076390000000     0.379690000000     0.495840000000    -1.03171    
O58      O      0.076690000000     0.641500000000     0.507900000000    -0.758115   
O59      O      0.006480000000     0.572940000000     0.642850000000    -0.574462   
O60      O      0.012110000000     0.438030000000     0.642290000000    -0.627621   
O61      O      0.062020000000     0.454460000000     0.558470000000    -1.98615    
O62      O      0.962360000000     0.553390000000     0.557670000000    -1.59084    
O63      O      0.953160000000     0.455130000000     0.563800000000    -1.24007    
O64      O      0.060510000000     0.563130000000     0.567630000000    -1.23513    
O65      O      0.639770000000     0.021470000000     0.446980000000    -1.03212    
O66      O      0.376580000000     0.014820000000     0.439920000000    -0.779577   
O67      O      0.513050000000     0.939020000000     0.380760000000    -1.0031     
O68      O      0.520920000000     0.076180000000     0.381240000000    -1.05831    
O69      O      0.521900000000     0.139590000000     0.443380000000    -1.04546    
O70      O      0.513170000000     0.876040000000     0.444030000000    -0.788495   
O71      O      0.441130000000     0.010380000000     0.378430000000    -0.99499    
O72      O      0.578120000000     0.021490000000     0.383120000000    -1.0604     
O73      O      0.461140000000     0.063770000000     0.455550000000    -2.08803    
O74      O      0.563960000000     0.961290000000     0.458600000000    -2.06654    
O75      O      0.455070000000     0.955030000000     0.453300000000    -0.867933   
O76      O      0.519140000000     0.020740000000     0.500840000000    -2.55458    
O77      O      0.377440000000     0.006430000000     0.574600000000    -0.706514   
O78      O      0.638090000000     0.016590000000     0.583170000000    -0.918698   
O79      O      0.441640000000     0.879660000000     0.512480000000    -0.732812   
O80      O      0.438630000000     0.141050000000     0.500580000000    -0.940301   
O81      O      0.574990000000     0.140040000000     0.499690000000    -1.04809    
O82      O      0.576860000000     0.877700000000     0.505740000000    -0.761899   
O83      O      0.503330000000     0.944750000000     0.641560000000    -0.573797   
O84      O      0.509850000000     0.079800000000     0.643490000000    -0.621014   
O85      O      0.503430000000     0.880950000000     0.578120000000    -0.709821   
O86      O      0.508960000000     0.142030000000     0.579630000000    -0.930478   
O87      O      0.378010000000     0.943360000000     0.509400000000    -0.73458    
O88      O      0.639730000000     0.940670000000     0.510150000000    -0.922835   
O89      O      0.637950000000     0.077300000000     0.499950000000    -1.02616    
O90      O      0.375910000000     0.077810000000     0.499780000000    -0.759414   
O91      O      0.439450000000     0.010750000000     0.639600000000    -0.583486   
O92      O      0.574200000000     0.015150000000     0.645260000000    -0.621047   
O93      O      0.560870000000     0.064560000000     0.559670000000    -1.97563    
O94      O      0.461810000000     0.964760000000     0.556740000000    -1.59792    
O95      O      0.559530000000     0.955430000000     0.567190000000    -1.2376     
O96      O      0.451760000000     0.062850000000     0.563870000000    -1.2434     
O97      O      0.445010000000     0.377390000000     0.001670000000    -1.04112    
O98      O      0.436530000000     0.640840000000     0.010130000000    -0.782322   
O99      O      0.379390000000     0.502570000000     0.083660000000    -0.998102   
O100     O      0.378140000000     0.495680000000     0.946510000000    -1.06136    
O101     O      0.439460000000     0.495940000000     0.882330000000    -1.05015    
O102     O      0.443260000000     0.502850000000     0.145990000000    -0.785063   
O103     O      0.375860000000     0.575500000000     0.014960000000    -1.00673    
O104     O      0.380710000000     0.438480000000     0.002810000000    -1.05027    
O105     O      0.451850000000     0.557060000000     0.958280000000    -2.07132    
O106     O      0.457390000000     0.453320000000     0.060180000000    -2.08927    
O107     O      0.451290000000     0.562020000000     0.067280000000    -0.865421   
O108     O      0.498270000000     0.498890000000     0.000370000000    -2.56594    
O109     O      0.571240000000     0.641610000000     0.014480000000    -0.692048   
O110     O      0.581430000000     0.380990000000     0.002150000000    -0.935909   
O111     O      0.511830000000     0.575400000000     0.141870000000    -0.736088   
O112     O      0.497140000000     0.580590000000     0.880470000000    -0.942989   
O113     O      0.496760000000     0.444010000000     0.880690000000    -1.0518     
O114     O      0.506240000000     0.440280000000     0.143070000000    -0.763983   
O115     O      0.639790000000     0.514550000000     0.074920000000    -0.577964   
O116     O      0.639880000000     0.508770000000     0.939640000000    -0.619357   
O117     O      0.577030000000     0.513300000000     0.139340000000    -0.715496   
O118     O      0.575420000000     0.509100000000     0.878060000000    -0.925339   
O119     O      0.507890000000     0.639570000000     0.078710000000    -0.728873   
O120     O      0.511100000000     0.377940000000     0.079560000000    -0.93608    
O121     O      0.497890000000     0.380560000000     0.943000000000    -1.05167    
O122     O      0.496060000000     0.642760000000     0.944290000000    -0.752917   
O123     O      0.636620000000     0.580190000000     0.008970000000    -0.581148   
O124     O      0.642940000000     0.445480000000     0.003570000000    -0.626303   
O125     O      0.556710000000     0.458230000000     0.955710000000    -1.98784    
O126     O      0.554500000000     0.556440000000     0.056230000000    -1.59768    
O127     O      0.565730000000     0.458700000000     0.064430000000    -1.23992    
O128     O      0.560330000000     0.567220000000     0.957910000000    -1.2357     
Tb1      Tb     0.008300000000     0.011100000000     0.096170000000     6.2924     
Tb2      Tb     0.007240000000     0.925490000000     0.015790000000     4.24721    
Tb3      Tb     0.010230000000     0.095090000000     0.008280000000     6.25934    
Tb4      Tb     0.924100000000     0.013840000000     0.015000000000     4.26524    
Tb5      Tb     0.093690000000     0.006230000000     0.009260000000     6.31125    
Tb6      Tb     0.009660000000     0.009740000000     0.926350000000     3.14289    
Tb7      Tb     0.009150000000     0.511070000000     0.425920000000     6.29326    
Tb8      Tb     0.010350000000     0.593090000000     0.509930000000     4.25615    
Tb9      Tb     0.008240000000     0.423330000000     0.510020000000     6.1955     
Tb10     Tb     0.924640000000     0.506940000000     0.506780000000     4.34541    
Tb11     Tb     0.094320000000     0.510020000000     0.513030000000     6.32688    
Tb12     Tb     0.010170000000     0.504930000000     0.595640000000     3.14454    
Tb13     Tb     0.509170000000     0.008340000000     0.425890000000     6.31297    
Tb14     Tb     0.424090000000     0.011500000000     0.506210000000     4.32045    
Tb15     Tb     0.593640000000     0.009420000000     0.513660000000     6.14854    
Tb16     Tb     0.510060000000     0.925700000000     0.508730000000     4.35173    
Tb17     Tb     0.507060000000     0.095560000000     0.511030000000     6.29166    
Tb18     Tb     0.508930000000     0.013260000000     0.595590000000     3.14661    
Tb19     Tb     0.423540000000     0.508040000000     0.013860000000     6.29916    
Tb20     Tb     0.503160000000     0.594040000000     0.010260000000     4.26647    
Tb21     Tb     0.511760000000     0.424460000000     0.011020000000     6.27336    
Tb22     Tb     0.507380000000     0.507360000000     0.095440000000     4.36148    
Tb23     Tb     0.507420000000     0.511750000000     0.925500000000     6.30015    
Tb24     Tb     0.592990000000     0.510120000000     0.006800000000     3.1585     


