data_structure

_audit_creation_method RASPA-1.0
_audit_creation_date 2023-5-19
_audit_author_name 'Poobodin Mano'

_cell_length_a    20.1982
_cell_length_b    20.1008
_cell_length_c    20.2576
_cell_angle_alpha 90
_cell_angle_beta  90
_cell_angle_gamma 90
_cell_volume      8224.59

_symmetry_cell_setting          triclinic
_symmetry_space_group_name_Hall 'P 1'
_symmetry_space_group_name_H-M  'P 1'
_symmetry_Int_Tables_number     1

_symmetry_equiv_pos_as_xyz 'x,y,z'

loop_
_atom_site_label
_atom_site_type_symbol
_atom_site_fract_x
_atom_site_fract_y
_atom_site_fract_z
_atom_site_charge
Br1      Br     0.502790000000     0.091770000000     0.196080000000    -0.244759   
Br2      Br     0.485210000000     0.695360000000     0.418840000000    -0.219309   
Br3      Br     0.502110000000     0.926340000000     0.818780000000    -0.209359   
Br4      Br     0.461540000000     0.319960000000     0.598260000000    -0.174377   
Br5      Br     0.598460000000     0.319780000000     0.483450000000    -0.18398    
Br6      Br     0.807080000000     0.909700000000     0.549840000000    -0.191259   
Br7      Br     0.404160000000     0.307780000000     0.427860000000    -0.195539   
Br8      Br     0.100980000000     0.821880000000     0.500450000000    -0.197707   
Br9      Br     0.904790000000     0.442300000000     0.212830000000    -0.216457   
Br10     Br     0.315280000000     0.518610000000     0.412210000000    -0.210111   
Br11     Br     0.410990000000     0.520670000000     0.700520000000    -0.212789   
Br12     Br     0.700650000000     0.510710000000     0.599160000000    -0.210042   
Br13     Br     0.911400000000     0.701750000000     0.036330000000    -0.216151   
Br14     Br     0.907480000000     0.315530000000     0.051350000000    -0.202286   
Br15     Br     0.199630000000     0.603280000000     0.995120000000    -0.229204   
Br16     Br     0.103110000000     0.318260000000     0.013660000000    -0.212885   
Br17     Br     0.911100000000     0.000350000000     0.704400000000    -0.200646   
Br18     Br     0.404380000000     0.076360000000     0.801360000000    -0.213535   
Br19     Br     0.192040000000     0.003500000000     0.410670000000    -0.197491   
Br20     Br     0.811320000000     0.016250000000     0.412160000000    -0.192282   
Br21     Br     0.086460000000     0.216550000000     0.612240000000    -0.209117   
Br22     Br     0.881660000000     0.734630000000     0.822770000000    -0.234769   
Br23     Br     0.044010000000     0.915900000000     0.313870000000    -0.200401   
Br24     Br     0.002450000000     0.202170000000     0.413320000000    -0.201384   
C1       C      0.020890000000     0.162460000000     0.160380000000     0.741585   
C2       C      0.020020000000     0.854780000000     0.163820000000     0.694322   
C3       C      0.847730000000     0.007730000000     0.160400000000     0.668405   
C4       C      0.157390000000     0.033940000000     0.160400000000     0.729975   
C5       C      0.001450000000     0.856990000000     0.858190000000     0.564858   
C6       C      0.021740000000     0.163260000000     0.856180000000     0.660244   
C7       C      0.855840000000     0.853370000000     0.007460000000     0.586483   
C8       C      0.160940000000     0.854600000000     0.025030000000     0.689675   
C9       C      0.157610000000     0.163470000000     0.017160000000     0.757985   
C10      C      0.850760000000     0.163860000000     0.022870000000     0.697687   
C11      C      0.855640000000     0.010840000000     0.856810000000     0.578172   
C12      C      0.158410000000     0.019190000000     0.852830000000     0.650509   
C13      C      0.028760000000     0.354260000000     0.358700000000     0.743198   
C14      C      0.003880000000     0.665450000000     0.354900000000     0.67047    
C15      C      0.853760000000     0.502390000000     0.352030000000     0.685657   
C16      C      0.162020000000     0.500510000000     0.357000000000     0.739248   
C17      C      0.001350000000     0.660100000000     0.659990000000     0.562746   
C18      C      0.018440000000     0.353830000000     0.661860000000     0.665494   
C19      C      0.852800000000     0.658750000000     0.513510000000     0.589922   
C20      C      0.158710000000     0.668050000000     0.500260000000     0.689035   
C21      C      0.156770000000     0.358300000000     0.479790000000     0.712993   
C22      C      0.851700000000     0.354270000000     0.499190000000     0.690047   
C23      C      0.853930000000     0.515810000000     0.656710000000     0.579265   
C24      C      0.161050000000     0.492150000000     0.662240000000     0.642525   
C25      C      0.657880000000     0.024870000000     0.356760000000     0.736103   
C26      C      0.346200000000     0.006150000000     0.355000000000     0.664382   
C27      C      0.512320000000     0.845740000000     0.363100000000     0.680457   
C28      C      0.521670000000     0.153680000000     0.345870000000     0.742964   
C29      C      0.354900000000     0.016560000000     0.660050000000     0.571709   
C30      C      0.657980000000     0.023990000000     0.663330000000     0.641109   
C31      C      0.353410000000     0.858950000000     0.522250000000     0.58149    
C32      C      0.350530000000     0.166030000000     0.485190000000     0.698012   
C33      C      0.654650000000     0.165430000000     0.480600000000     0.736982   
C34      C      0.661180000000     0.857160000000     0.504870000000     0.69306    
C35      C      0.504750000000     0.867220000000     0.666600000000     0.571376   
C36      C      0.510220000000     0.175470000000     0.653620000000     0.652876   
C37      C      0.357120000000     0.355570000000     0.990600000000     0.755062   
C38      C      0.352090000000     0.663470000000     0.004540000000     0.690108   
C39      C      0.355080000000     0.492340000000     0.162050000000     0.671765   
C40      C      0.356710000000     0.499590000000     0.853390000000     0.75593    
C41      C      0.657950000000     0.662100000000     0.019980000000     0.556734   
C42      C      0.664200000000     0.354910000000     0.989850000000     0.647199   
C43      C      0.506810000000     0.655940000000     0.163530000000     0.58482    
C44      C      0.493930000000     0.670170000000     0.858540000000     0.686177   
C45      C      0.486570000000     0.361770000000     0.851200000000     0.736416   
C46      C      0.500450000000     0.349050000000     0.155970000000     0.695397   
C47      C      0.659010000000     0.504090000000     0.157460000000     0.566521   
C48      C      0.663740000000     0.503760000000     0.852630000000     0.647285   
C49      C      0.495120000000     0.314610000000     0.272930000000     0.00790781 
C50      C      0.485560000000     0.229710000000     0.183280000000    -0.0138084  
C51      C      0.542750000000     0.269020000000     0.309760000000     0.0102371  
C52      C      0.529590000000     0.181620000000     0.222990000000     0.121752   
C53      C      0.498600000000     0.773350000000     0.198690000000    -0.00107547 
C54      C      0.487130000000     0.681090000000     0.281220000000    -0.026479   
C55      C      0.537980000000     0.813240000000     0.249020000000     0.0165078  
C56      C      0.522420000000     0.723520000000     0.333700000000     0.117775   
C57      C      0.473520000000     0.704130000000     0.742610000000     0.0145623  
C58      C      0.476750000000     0.789470000000     0.831980000000    -0.0180944  
C59      C      0.514990000000     0.749430000000     0.698480000000    -0.00100194 
C60      C      0.518290000000     0.835550000000     0.787790000000     0.108778   
C61      C      0.480400000000     0.243730000000     0.816300000000     0.0212755  
C62      C      0.459360000000     0.334190000000     0.734960000000    -0.0170058  
C63      C      0.528800000000     0.211320000000     0.768390000000    -0.00176371 
C64      C      0.502260000000     0.298200000000     0.683160000000     0.116886   
C65      C      0.818340000000     0.235580000000     0.504140000000     0.0119089  
C66      C      0.733500000000     0.326110000000     0.510060000000    -0.0232799  
C67      C      0.771630000000     0.195430000000     0.459920000000     0.00770532 
C68      C      0.687720000000     0.286720000000     0.464520000000     0.121207   
C69      C      0.733890000000     0.688840000000     0.523390000000     0.000628705
C70      C      0.821690000000     0.773150000000     0.544190000000    -0.0287843  
C71      C      0.693140000000     0.740620000000     0.485670000000     0.00602885 
C72      C      0.782350000000     0.826190000000     0.506760000000     0.123985   
C73      C      0.185350000000     0.241640000000     0.450710000000     0.0168895  
C74      C      0.269340000000     0.330280000000     0.440990000000    -0.0196656  
C75      C      0.233490000000     0.196600000000     0.487490000000     0.00116687 
C76      C      0.321780000000     0.286690000000     0.474370000000     0.123524   
C77      C      0.320500000000     0.740460000000     0.538040000000    -0.00319295 
C78      C      0.235000000000     0.829880000000     0.538250000000    -0.028123   
C79      C      0.277010000000     0.698890000000     0.491600000000     0.0137515  
C80      C      0.192250000000     0.789970000000     0.489890000000     0.118764   
C81      C      0.687740000000     0.487640000000     0.274700000000     0.00290252 
C82      C      0.772350000000     0.471380000000     0.186650000000    -0.0332366  
C83      C      0.738880000000     0.520510000000     0.319060000000     0.00786077 
C84      C      0.827120000000     0.498140000000     0.231890000000     0.126069   
C85      C      0.238540000000     0.466880000000     0.193380000000     0.00659799 
C86      C      0.326260000000     0.475590000000     0.279750000000    -0.0261057  
C87      C      0.190520000000     0.504960000000     0.238590000000     0.0129683  
C88      C      0.281240000000     0.519750000000     0.321550000000     0.123224   
C89      C      0.193350000000     0.462700000000     0.777240000000    -0.00470155 
C90      C      0.279260000000     0.475210000000     0.689700000000    -0.0202602  
C91      C      0.237820000000     0.500960000000     0.825720000000     0.0169588  
C92      C      0.320310000000     0.519570000000     0.735050000000     0.124142   
C93      C      0.781820000000     0.491750000000     0.820220000000     0.00497299 
C94      C      0.692220000000     0.485500000000     0.735220000000    -0.01361    
C95      C      0.823030000000     0.534770000000     0.773260000000    -0.00505914 
C96      C      0.732710000000     0.529710000000     0.688770000000     0.112418   
C97      C      0.689440000000     0.781220000000     0.032650000000     0.000873895
C98      C      0.773650000000     0.692160000000     0.047580000000    -0.0296153  
C99      C      0.738820000000     0.821480000000     0.991230000000     0.00337192 
C100     C      0.823750000000     0.730920000000     0.005730000000     0.112976   
C101     C      0.695840000000     0.235840000000     0.976420000000     0.0144407  
C102     C      0.783050000000     0.323960000000     0.985120000000    -0.0282871  
C103     C      0.732080000000     0.194670000000     0.029150000000     0.0015546  
C104     C      0.816190000000     0.284540000000     0.040550000000     0.12182    
C105     C      0.279050000000     0.823700000000     0.041300000000     0.0123276  
C106     C      0.191140000000     0.736180000000     0.041140000000    -0.0264787  
C107     C      0.320300000000     0.781700000000     0.993460000000     0.00631327 
C108     C      0.230820000000     0.695700000000     0.991000000000     0.124361   
C109     C      0.325640000000     0.240370000000     0.015930000000     0.00851892 
C110     C      0.240240000000     0.330770000000     0.009010000000    -0.014811   
C111     C      0.273480000000     0.189960000000     0.994230000000     0.0226401  
C112     C      0.188440000000     0.280580000000     0.986140000000     0.125048   
C113     C      0.688360000000     0.006340000000     0.779940000000    -0.00333666 
C114     C      0.774340000000     0.004970000000     0.690780000000    -0.0170476  
C115     C      0.739870000000     0.033930000000     0.828000000000     0.00645612 
C116     C      0.825790000000     0.033180000000     0.738250000000     0.112245   
C117     C      0.187670000000     0.032770000000     0.734880000000     0.000876618
C118     C      0.271020000000     0.053900000000     0.822720000000    -0.00975467 
C119     C      0.239510000000     0.997340000000     0.692840000000     0.00738535 
C120     C      0.325930000000     0.022790000000     0.780540000000     0.10865    
C121     C      0.275600000000     0.049760000000     0.193590000000     0.0136532  
C122     C      0.186670000000     0.050780000000     0.278710000000    -0.0145059  
C123     C      0.316100000000     0.001100000000     0.236290000000     0.00396641 
C124     C      0.224810000000     0.999130000000     0.319610000000     0.11715    
C125     C      0.728990000000     0.000580000000     0.192180000000     0.00265426 
C126     C      0.818020000000     0.991770000000     0.277410000000    -0.0135524  
C127     C      0.687940000000     0.043340000000     0.239750000000     0.00880814 
C128     C      0.778880000000     0.037260000000     0.323540000000     0.118754   
C129     C      0.043830000000     0.280670000000     0.827980000000     0.0166055  
C130     C      0.062610000000     0.191730000000     0.745290000000    -0.0260847  
C131     C      0.007480000000     0.322930000000     0.777680000000    -0.00140772 
C132     C      0.031580000000     0.233790000000     0.690390000000     0.121803   
C133     C      0.985620000000     0.778110000000     0.690640000000     0.00822081 
C134     C      0.008360000000     0.689870000000     0.778050000000    -0.0316376  
C135     C      0.015630000000     0.826230000000     0.741150000000    -0.000273466
C136     C      0.977720000000     0.740570000000     0.825860000000     0.124628   
C137     C      0.991370000000     0.695780000000     0.236710000000     0.0175385  
C138     C      0.993590000000     0.784250000000     0.324260000000    -0.0224029  
C139     C      0.039100000000     0.737370000000     0.194990000000    -6.35268e-05
C140     C      0.043640000000     0.823320000000     0.283330000000     0.121756   
C141     C      0.023070000000     0.281460000000     0.192970000000     0.00300832 
C142     C      0.002850000000     0.191900000000     0.276550000000    -0.0140679  
C143     C      0.060500000000     0.321720000000     0.245300000000     0.0146858  
C144     C      0.040030000000     0.232140000000     0.328750000000     0.121636   
H1       H      0.958840000000     0.961520000000     0.058410000000    -1.23833    
H2       H      0.045660000000     0.049140000000     0.048710000000    -1.12714    
H3       H      0.945460000000     0.121480000000     0.949630000000    -0.539444   
H4       H      0.119250000000     0.948690000000     0.950720000000    -0.558944   
H5       H      0.960150000000     0.555770000000     0.458130000000    -1.24879    
H6       H      0.046880000000     0.469840000000     0.468890000000    -1.07849    
H7       H      0.947150000000     0.396070000000     0.567300000000    -0.543835   
H8       H      0.118630000000     0.569770000000     0.568780000000    -0.505196   
H9       H      0.457590000000     0.960840000000     0.460810000000    -1.23357    
H10      H      0.543690000000     0.048910000000     0.465690000000    -1.0918     
H11      H      0.617220000000     0.955180000000     0.568820000000    -0.54186    
H12      H      0.443860000000     0.126730000000     0.559680000000    -0.541314   
H13      H      0.458170000000     0.554430000000     0.055240000000    -1.26593    
H14      H      0.468950000000     0.469980000000     0.965590000000    -1.11862    
H15      H      0.568830000000     0.394590000000     0.062000000000    -0.564397   
H16      H      0.567220000000     0.573970000000     0.896740000000    -0.561184   
H17      H      0.432820000000     0.217650000000     0.193760000000     0.0448349  
H18      H      0.444080000000     0.305600000000     0.291100000000     0.0494731  
H19      H      0.539450000000     0.281020000000     0.362790000000     0.0725816  
H20      H      0.493870000000     0.220990000000     0.129730000000     0.0524424  
H21      H      0.581220000000     0.188230000000     0.205030000000     0.0147685  
H22      H      0.508360000000     0.367060000000     0.284240000000     0.0509104  
H23      H      0.594050000000     0.280790000000     0.293550000000     0.0319785  
H24      H      0.432700000000     0.686310000000     0.287940000000     0.050624   
H25      H      0.445830000000     0.788970000000     0.201280000000     0.0316727  
H26      H      0.531710000000     0.866830000000     0.237250000000     0.0358328  
H27      H      0.499670000000     0.628020000000     0.290380000000     0.0643776  
H28      H      0.575520000000     0.708860000000     0.334000000000     0.0214733  
H29      H      0.517500000000     0.785770000000     0.148640000000     0.0410418  
H30      H      0.591370000000     0.801410000000     0.242260000000     0.0278087  
H31      H      0.423630000000     0.802980000000     0.826280000000     0.0512257  
H32      H      0.420330000000     0.712600000000     0.731110000000     0.0369771  
H33      H      0.501080000000     0.738400000000     0.646570000000     0.0529816  
H34      H      0.490580000000     0.798250000000     0.884380000000     0.0588679  
H35      H      0.571240000000     0.825250000000     0.798930000000     0.0263282  
H36      H      0.485300000000     0.651700000000     0.730040000000     0.0532932  
H37      H      0.567940000000     0.735460000000     0.704440000000     0.041027   
H38      H      0.406650000000     0.320090000000     0.727170000000     0.0504467  
H39      H      0.430480000000     0.221930000000     0.808550000000     0.0447401  
H40      H      0.531710000000     0.157360000000     0.779580000000     0.0590254  
H41      H      0.463300000000     0.388480000000     0.726600000000     0.0765447  
H42      H      0.552150000000     0.321580000000     0.683610000000     0.0278851  
H43      H      0.496220000000     0.232140000000     0.867550000000     0.0427397  
H44      H      0.578870000000     0.232250000000     0.778000000000     0.033391   
H45      H      0.719800000000     0.315200000000     0.562160000000     0.0566396  
H46      H      0.811530000000     0.218740000000     0.556000000000     0.0390768  
H47      H      0.781490000000     0.142170000000     0.469220000000     0.0649188  
H48      H      0.724830000000     0.380040000000     0.501590000000     0.0756613  
H49      H      0.699050000000     0.301920000000     0.412930000000     0.0185787  
H50      H      0.870190000000     0.224510000000     0.489650000000     0.0583798  
H51      H      0.784670000000     0.205770000000     0.407560000000     0.0368242  
H52      H      0.809470000000     0.776720000000     0.597670000000     0.0596419  
H53      H      0.716770000000     0.688020000000     0.575570000000     0.0480036  
H54      H      0.639900000000     0.729020000000     0.493290000000     0.0555856  
H55      H      0.875360000000     0.784290000000     0.539060000000     0.0715671  
H56      H      0.801260000000     0.828260000000     0.455240000000     0.0266499  
H57      H      0.723840000000     0.639120000000     0.501600000000     0.05677    
H58      H      0.703340000000     0.734350000000     0.432070000000     0.034019   
H59      H      0.272480000000     0.323680000000     0.386490000000     0.0459898  
H60      H      0.189250000000     0.230390000000     0.397110000000     0.0324573  
H61      H      0.222740000000     0.144510000000     0.472590000000     0.0624652  
H62      H      0.280890000000     0.383030000000     0.451880000000     0.077936   
H63      H      0.327390000000     0.304020000000     0.526160000000     0.037275   
H64      H      0.134440000000     0.229450000000     0.466900000000     0.0726016  
H65      H      0.223300000000     0.200450000000     0.541280000000     0.0512231  
H66      H      0.218980000000     0.817600000000     0.589380000000     0.0524706  
H67      H      0.309670000000     0.725040000000     0.589660000000     0.0401824  
H68      H      0.286610000000     0.645600000000     0.502310000000     0.055145   
H69      H      0.225910000000     0.883840000000     0.530630000000     0.074999   
H70      H      0.207250000000     0.805090000000     0.439210000000     0.0287683  
H71      H      0.373320000000     0.728960000000     0.528040000000     0.0594569  
H72      H      0.293610000000     0.708300000000     0.440090000000     0.0404682  
H73      H      0.771410000000     0.416080000000     0.189680000000     0.0588327  
H74      H      0.685420000000     0.433720000000     0.286920000000     0.0397011  
H75      H      0.725450000000     0.508900000000     0.371020000000     0.049439   
H76      H      0.785620000000     0.484430000000     0.134970000000     0.0653654  
H77      H      0.839300000000     0.549710000000     0.216100000000     0.0207528  
H78      H      0.638590000000     0.509830000000     0.285920000000     0.0481548  
H79      H      0.734890000000     0.575360000000     0.312990000000     0.0308347  
H80      H      0.319540000000     0.423000000000     0.295550000000     0.0522414  
H81      H      0.229980000000     0.412720000000     0.200680000000     0.0287921  
H82      H      0.140160000000     0.484310000000     0.230230000000     0.0414121  
H83      H      0.378660000000     0.489500000000     0.289240000000     0.0675499  
H84      H      0.289120000000     0.571810000000     0.304570000000     0.0174306  
H85      H      0.226400000000     0.478500000000     0.141130000000     0.0447661  
H86      H      0.189600000000     0.557860000000     0.222510000000     0.031121   
H87      H      0.296170000000     0.422870000000     0.695730000000     0.0514105  
H88      H      0.202330000000     0.408590000000     0.784450000000     0.0346629  
H89      H      0.230320000000     0.478940000000     0.875510000000     0.0481796  
H90      H      0.288290000000     0.489920000000     0.637590000000     0.0654626  
H91      H      0.302170000000     0.571370000000     0.728090000000     0.0192214  
H92      H      0.140700000000     0.472450000000     0.789850000000     0.0467394  
H93      H      0.220270000000     0.553370000000     0.827880000000     0.0388974  
H94      H      0.702660000000     0.432560000000     0.723010000000     0.0501715  
H95      H      0.797410000000     0.439040000000     0.814120000000     0.0367855  
H96      H      0.876180000000     0.525600000000     0.783940000000     0.050796   
H97      H      0.638690000000     0.494330000000     0.726000000000     0.0626881  
H98      H      0.718340000000     0.582140000000     0.699020000000     0.0280208  
H99      H      0.793110000000     0.506740000000     0.871820000000     0.047735   
H100     H      0.813030000000     0.587850000000     0.785110000000     0.052115   
H101     H      0.781590000000     0.705330000000     0.100350000000     0.0507482  
H102     H      0.692910000000     0.798290000000     0.084770000000     0.0331571  
H103     H      0.727930000000     0.875070000000     0.998990000000     0.0446855  
H104     H      0.783550000000     0.638000000000     0.042540000000     0.0656129  
H105     H      0.818620000000     0.712710000000     0.954250000000     0.0451336  
H106     H      0.638550000000     0.792070000000     0.014780000000     0.0423834  
H107     H      0.729160000000     0.810600000000     0.938260000000     0.0444344  
H108     H      0.806140000000     0.309350000000     0.937420000000     0.051912   
H109     H      0.712860000000     0.218550000000     0.927100000000     0.0291507  
H110     H      0.722920000000     0.141100000000     0.019260000000     0.040109   
H111     H      0.792140000000     0.377960000000     0.992500000000     0.064362   
H112     H      0.791340000000     0.299830000000     0.087200000000     0.0227856  
H113     H      0.641890000000     0.225670000000     0.979770000000     0.0371329  
H114     H      0.709810000000     0.206440000000     0.077990000000     0.0344158  
H115     H      0.204600000000     0.719000000000     0.091600000000     0.0470403  
H116     H      0.295310000000     0.811960000000     0.092450000000     0.027      
H117     H      0.373440000000     0.792110000000     0.003080000000     0.0405138  
H118     H      0.137430000000     0.726510000000     0.034090000000     0.0654239  
H119     H      0.215650000000     0.713420000000     0.941190000000     0.0206876  
H120     H      0.289550000000     0.877160000000     0.032190000000     0.035301   
H121     H      0.309410000000     0.798720000000     0.942350000000     0.0348671  
H122     H      0.234730000000     0.338890000000     0.063110000000     0.0452782  
H123     H      0.329940000000     0.238530000000     0.070660000000     0.0284796  
H124     H      0.285740000000     0.142020000000     0.018770000000     0.0361411  
H125     H      0.229500000000     0.378860000000     0.983930000000     0.0592891  
H126     H      0.188230000000     0.280740000000     0.931220000000     0.0134972  
H127     H      0.374190000000     0.224810000000     0.995090000000     0.0420377  
H128     H      0.278450000000     0.182110000000     0.940080000000     0.0278391  
H129     H      0.779930000000     0.949940000000     0.689120000000     0.0710016  
H130     H      0.684950000000     0.951570000000     0.787090000000     0.0492358  
H131     H      0.727420000000     0.014680000000     0.877920000000     0.043104   
H132     H      0.785420000000     0.025300000000     0.640920000000     0.0731917  
H133     H      0.826300000000     0.088190000000     0.732290000000     0.0262411  
H134     H      0.639370000000     0.027950000000     0.792890000000     0.0543156  
H135     H      0.734430000000     0.088980000000     0.829720000000     0.0326373  
H136     H      0.270670000000     0.108720000000     0.814720000000     0.0470048  
H137     H      0.185790000000     0.085940000000     0.719730000000     0.0423634  
H138     H      0.226870000000     0.006080000000     0.640150000000     0.0507961  
H139     H      0.283160000000     0.045480000000     0.875610000000     0.0522018  
H140     H      0.335280000000     0.971540000000     0.798970000000     0.0347803  
H141     H      0.138520000000     0.010290000000     0.724310000000     0.051652   
H142     H      0.235230000000     0.942920000000     0.701790000000     0.0373341  
H143     H      0.201120000000     0.101240000000     0.296110000000     0.0451234  
H144     H      0.292240000000     0.101160000000     0.205330000000     0.0304023  
H145     H      0.369410000000     0.011230000000     0.227550000000     0.0469533  
H146     H      0.132680000000     0.045240000000     0.287500000000     0.0718408  
H147     H      0.208860000000     0.949360000000     0.301580000000     0.0298077  
H148     H      0.286900000000     0.040410000000     0.140730000000     0.0388668  
H149     H      0.306020000000     0.949770000000     0.218430000000     0.0302448  
H150     H      0.805930000000     0.939160000000     0.289560000000     0.0478919  
H151     H      0.712310000000     0.948070000000     0.196910000000     0.0315109  
H152     H      0.634900000000     0.033450000000     0.229780000000     0.0528002  
H153     H      0.871770000000     0.998990000000     0.286820000000     0.0644162  
H154     H      0.794420000000     0.089330000000     0.313240000000     0.0185465  
H155     H      0.718420000000     0.016950000000     0.140840000000     0.0423345  
H156     H      0.697230000000     0.096540000000     0.227800000000     0.030785   
H157     H      0.117090000000     0.200150000000     0.745790000000     0.0513003  
H158     H      0.097140000000     0.294610000000     0.827380000000     0.0343072  
H159     H      0.018200000000     0.375860000000     0.789490000000     0.0464821  
H160     H      0.054590000000     0.138320000000     0.733470000000     0.0678285  
H161     H      0.981240000000     0.214010000000     0.679930000000     0.0311971  
H162     H      0.023770000000     0.292290000000     0.877740000000     0.0551367  
H163     H      0.953330000000     0.315380000000     0.784340000000     0.0403853  
H164     H      0.987770000000     0.639780000000     0.789170000000     0.0652268  
H165     H      0.931270000000     0.786330000000     0.687970000000     0.0582669  
H166     H      0.999630000000     0.877440000000     0.728200000000     0.0678785  
H167     H      0.062500000000     0.687050000000     0.787610000000     0.0474023  
H168     H      0.992740000000     0.726630000000     0.876810000000     0.040073   
H169     H      0.006050000000     0.790590000000     0.641210000000     0.0557523  
H170     H      0.070460000000     0.825080000000     0.736400000000     0.0415139  
H171     H      0.943040000000     0.802510000000     0.312130000000     0.0494977  
H172     H      0.939980000000     0.707130000000     0.220510000000     0.0353034  
H173     H      0.029750000000     0.726510000000     0.142080000000     0.0567913  
H174     H      0.002430000000     0.793960000000     0.377500000000     0.0764306  
H175     H      0.093490000000     0.804130000000     0.296990000000     0.0257294  
H176     H      0.000740000000     0.642280000000     0.226630000000     0.0425178  
H177     H      0.090450000000     0.720800000000     0.206130000000     0.0345511  
H178     H      0.948830000000     0.201500000000     0.281880000000     0.051205   
H179     H      0.971190000000     0.299720000000     0.191060000000     0.0608643  
H180     H      0.054910000000     0.375440000000     0.233690000000     0.0497572  
H181     H      0.011180000000     0.138220000000     0.287010000000     0.063116   
H182     H      0.092480000000     0.215460000000     0.327830000000     0.0147527  
H183     H      0.046100000000     0.290950000000     0.144230000000     0.0668801  
H184     H      0.114080000000     0.309730000000     0.240850000000     0.0235398  
N1       N      0.528400000000     0.198580000000     0.294820000000    -0.236302   
N2       N      0.497010000000     0.299500000000     0.202130000000    -0.219494   
N3       N      0.518570000000     0.795650000000     0.317220000000    -0.227096   
N4       N      0.503180000000     0.701910000000     0.213340000000    -0.20015    
N5       N      0.507030000000     0.820450000000     0.716490000000    -0.200608   
N6       N      0.485150000000     0.719490000000     0.812600000000    -0.216056   
N7       N      0.510180000000     0.226200000000     0.699320000000    -0.213707   
N8       N      0.477420000000     0.315360000000     0.802630000000    -0.231477   
N9       N      0.701660000000     0.214140000000     0.470970000000    -0.236183   
N10      N      0.803030000000     0.306950000000     0.500180000000    -0.21459    
N11      N      0.710360000000     0.809660000000     0.504560000000    -0.224099   
N12      N      0.804630000000     0.705960000000     0.521910000000    -0.197106   
N13      N      0.303510000000     0.214660000000     0.475940000000    -0.222993   
N14      N      0.202670000000     0.311590000000     0.461810000000    -0.223961   
N15      N      0.206140000000     0.717350000000     0.497210000000    -0.224831   
N16      N      0.305180000000     0.811640000000     0.530820000000    -0.195822   
N17      N      0.807240000000     0.500140000000     0.302680000000    -0.226447   
N18      N      0.706260000000     0.495340000000     0.205070000000    -0.193787   
N19      N      0.210500000000     0.502490000000     0.309050000000    -0.238702   
N20      N      0.307990000000     0.481790000000     0.209740000000    -0.215088   
N21      N      0.308390000000     0.500870000000     0.805370000000    -0.241148   
N22      N      0.209130000000     0.479870000000     0.708390000000    -0.207109   
N23      N      0.804840000000     0.522610000000     0.703470000000    -0.202406   
N24      N      0.710900000000     0.497270000000     0.804420000000    -0.209422   
N25      N      0.808520000000     0.803750000000     0.006170000000    -0.204753   
N26      N      0.705440000000     0.709940000000     0.029690000000    -0.191768   
N27      N      0.803190000000     0.212260000000     0.030490000000    -0.227308   
N28      N      0.712120000000     0.307100000000     0.983470000000    -0.209956   
N29      N      0.302810000000     0.710380000000     0.999130000000    -0.228079   
N30      N      0.208370000000     0.806980000000     0.034630000000    -0.218008   
N31      N      0.205000000000     0.211970000000     0.008520000000    -0.243164   
N32      N      0.308380000000     0.308560000000     0.996230000000    -0.231428   
N33      N      0.808550000000     0.017910000000     0.808160000000    -0.203588   
N34      N      0.706130000000     0.019710000000     0.710800000000    -0.205256   
N35      N      0.307780000000     0.018360000000     0.709160000000    -0.201524   
N36      N      0.205340000000     0.028850000000     0.805090000000    -0.211331   
N37      N      0.297480000000     0.005250000000     0.306990000000    -0.222196   
N38      N      0.204380000000     0.044180000000     0.208530000000    -0.229644   
N39      N      0.706520000000     0.031560000000     0.309440000000    -0.237614   
N40      N      0.800020000000     0.004050000000     0.208320000000    -0.217275   
N41      N      0.025100000000     0.305310000000     0.708910000000    -0.219933   
N42      N      0.036990000000     0.210410000000     0.810290000000    -0.211185   
N43      N      0.997900000000     0.809240000000     0.809880000000    -0.197699   
N44      N      0.998210000000     0.708020000000     0.708110000000    -0.184547   
N45      N      0.032500000000     0.808520000000     0.212120000000    -0.22801    
N46      N      0.998070000000     0.713170000000     0.307170000000    -0.215968   
N47      N      0.038380000000     0.304640000000     0.312720000000    -0.237961   
N48      N      0.022250000000     0.210040000000     0.208960000000    -0.227611   
O1       O      0.021710000000     0.181680000000     0.097240000000    -1.07442    
O2       O      0.017120000000     0.834310000000     0.100650000000    -0.758462   
O3       O      0.911900000000     0.006110000000     0.179120000000    -1.01793    
O4       O      0.093980000000     0.028040000000     0.178880000000    -1.0814     
O5       O      0.177220000000     0.029400000000     0.097530000000    -1.08763    
O6       O      0.828480000000     0.010400000000     0.097100000000    -0.773489   
O7       O      0.013250000000     0.918640000000     0.181210000000    -1.03416    
O8       O      0.014970000000     0.098930000000     0.178870000000    -1.10777    
O9       O      0.078020000000     0.946570000000     0.080420000000    -2.13116    
O10      O      0.941130000000     0.080550000000     0.079870000000    -2.12722    
O11      O      0.934760000000     0.936540000000     0.083890000000    -0.865083   
O12      O      0.020510000000     0.023320000000     0.022770000000    -2.60997    
O13      O      0.000040000000     0.837540000000     0.922180000000    -0.679661   
O14      O      0.013770000000     0.182570000000     0.919130000000    -0.951205   
O15      O      0.835350000000     0.917680000000     0.007040000000    -0.707697   
O16      O      0.179970000000     0.918640000000     0.020810000000    -0.981406   
O17      O      0.177230000000     0.099810000000     0.018490000000    -1.0857     
O18      O      0.831860000000     0.099630000000     0.021400000000    -0.74128    
O19      O      0.919670000000     0.013130000000     0.839190000000    -0.582934   
O20      O      0.095100000000     0.014330000000     0.834070000000    -0.630253   
O21      O      0.835510000000     0.007520000000     0.920500000000    -0.698327   
O22      O      0.177750000000     0.017260000000     0.916620000000    -0.945897   
O23      O      0.920090000000     0.835630000000     0.009030000000    -0.70507    
O24      O      0.914220000000     0.182270000000     0.017080000000    -0.960732   
O25      O      0.094030000000     0.181180000000     0.018090000000    -1.06796    
O26      O      0.097420000000     0.835260000000     0.021010000000    -0.752293   
O27      O      0.007020000000     0.920960000000     0.838850000000    -0.584786   
O28      O      0.019070000000     0.099560000000     0.836810000000    -0.623332   
O29      O      0.076210000000     0.079710000000     0.947080000000    -2.0611     
O30      O      0.945950000000     0.947760000000     0.948070000000    -1.56206    
O31      O      0.933410000000     0.078050000000     0.937470000000    -1.24142    
O32      O      0.076300000000     0.935990000000     0.938130000000    -1.24072    
O33      O      0.023590000000     0.336890000000     0.421630000000    -1.06682    
O34      O      0.006470000000     0.684890000000     0.418340000000    -0.791869   
O35      O      0.917740000000     0.506990000000     0.334910000000    -1.00235    
O36      O      0.098510000000     0.500700000000     0.337870000000    -1.06298    
O37      O      0.179710000000     0.501300000000     0.420350000000    -1.02606    
O38      O      0.833290000000     0.501920000000     0.415230000000    -0.778541   
O39      O      0.004110000000     0.601220000000     0.336060000000    -0.998612   
O40      O      0.025570000000     0.417900000000     0.338750000000    -1.04759    
O41      O      0.078270000000     0.574270000000     0.437510000000    -2.08938    
O42      O      0.944090000000     0.436240000000     0.435800000000    -2.10672    
O43      O      0.935410000000     0.580170000000     0.432730000000    -0.868655   
O44      O      0.021050000000     0.495490000000     0.494250000000    -2.58115    
O45      O      0.999280000000     0.679630000000     0.596060000000    -0.708256   
O46      O      0.015270000000     0.335740000000     0.598200000000    -0.947287   
O47      O      0.833770000000     0.594650000000     0.508220000000    -0.736391   
O48      O      0.178600000000     0.604110000000     0.505010000000    -0.924186   
O49      O      0.176240000000     0.421780000000     0.485350000000    -1.04319    
O50      O      0.833350000000     0.418270000000     0.498710000000    -0.78113    
O51      O      0.917550000000     0.511190000000     0.677410000000    -0.574957   
O52      O      0.097690000000     0.496510000000     0.682010000000    -0.611633   
O53      O      0.836520000000     0.514770000000     0.592690000000    -0.698049   
O54      O      0.179570000000     0.497460000000     0.598600000000    -0.937905   
O55      O      0.916650000000     0.679150000000     0.512700000000    -0.742613   
O56      O      0.915460000000     0.334900000000     0.501800000000    -0.943698   
O57      O      0.094540000000     0.338160000000     0.489160000000    -1.04758    
O58      O      0.094710000000     0.684860000000     0.498590000000    -0.772701   
O59      O      0.007710000000     0.596110000000     0.679320000000    -0.585048   
O60      O      0.013670000000     0.417370000000     0.681570000000    -0.630386   
O61      O      0.077990000000     0.438190000000     0.570160000000    -2.00595    
O62      O      0.946140000000     0.568230000000     0.568540000000    -1.61469    
O63      O      0.934110000000     0.439200000000     0.579270000000    -1.25281    
O64      O      0.075310000000     0.582240000000     0.580350000000    -1.26485    
O65      O      0.675490000000     0.026450000000     0.419880000000    -1.06917    
O66      O      0.328370000000     0.009870000000     0.418500000000    -0.761354   
O67      O      0.507650000000     0.908850000000     0.341110000000    -1.01461    
O68      O      0.517900000000     0.089230000000     0.331760000000    -1.06843    
O69      O      0.518960000000     0.176810000000     0.407950000000    -1.03334    
O70      O      0.513180000000     0.830470000000     0.427410000000    -0.775725   
O71      O      0.410430000000     0.002890000000     0.336110000000    -0.972228   
O72      O      0.594710000000     0.017190000000     0.337440000000    -1.03638    
O73      O      0.440670000000     0.078780000000     0.432500000000    -2.0917     
O74      O      0.576840000000     0.944270000000     0.440020000000    -2.08846    
O75      O      0.433140000000     0.934560000000     0.437010000000    -0.866387   
O76      O      0.518450000000     0.024720000000     0.492990000000    -2.57902    
O77      O      0.334770000000     0.013790000000     0.596230000000    -0.695485   
O78      O      0.676520000000     0.020790000000     0.599400000000    -0.922838   
O79      O      0.417420000000     0.838960000000     0.520070000000    -0.723674   
O80      O      0.413900000000     0.184550000000     0.491040000000    -0.954395   
O81      O      0.591180000000     0.182810000000     0.481680000000    -1.07047    
O82      O      0.597500000000     0.837370000000     0.507190000000    -0.747997   
O83      O      0.507210000000     0.932350000000     0.682150000000    -0.54821    
O84      O      0.510080000000     0.112520000000     0.675840000000    -0.607142   
O85      O      0.503250000000     0.844970000000     0.603610000000    -0.713617   
O86      O      0.509890000000     0.190180000000     0.588870000000    -0.906582   
O87      O      0.333820000000     0.923010000000     0.516650000000    -0.729723   
O88      O      0.678410000000     0.921600000000     0.502590000000    -0.934153   
O89      O      0.674730000000     0.102350000000     0.488770000000    -1.03867    
O90      O      0.331300000000     0.101980000000     0.489720000000    -0.741841   
O91      O      0.418890000000     0.017920000000     0.678020000000    -0.566076   
O92      O      0.594500000000     0.025510000000     0.682370000000    -0.614138   
O93      O      0.575450000000     0.086990000000     0.566510000000    -2.0228     
O94      O      0.445220000000     0.954120000000     0.571700000000    -1.58288    
O95      O      0.574530000000     0.943150000000     0.582450000000    -1.24316    
O96      O      0.431900000000     0.084420000000     0.575110000000    -1.23574    
O97      O      0.420360000000     0.335890000000     0.991620000000    -1.08271    
O98      O      0.415490000000     0.683980000000     0.005190000000    -0.774488   
O99      O      0.335790000000     0.498470000000     0.098570000000    -1.00419    
O100     O      0.337910000000     0.498710000000     0.916840000000    -1.07748    
O101     O      0.419970000000     0.502010000000     0.835260000000    -1.06794    
O102     O      0.418720000000     0.494430000000     0.180910000000    -0.79355    
O103     O      0.335240000000     0.599140000000     0.007950000000    -1.02985    
O104     O      0.338750000000     0.419350000000     0.990970000000    -1.11986    
O105     O      0.436780000000     0.574630000000     0.937660000000    -2.12917    
O106     O      0.438110000000     0.434240000000     0.067560000000    -2.15395    
O107     O      0.432330000000     0.577780000000     0.080500000000    -0.874409   
O108     O      0.494650000000     0.494850000000     0.991900000000    -2.61383    
O109     O      0.593850000000     0.681340000000     0.017960000000    -0.705205   
O110     O      0.600420000000     0.335610000000     0.991500000000    -0.960185   
O111     O      0.506970000000     0.590940000000     0.180470000000    -0.750829   
O112     O      0.499240000000     0.606900000000     0.837350000000    -0.957742   
O113     O      0.489830000000     0.425970000000     0.833990000000    -1.07785    
O114     O      0.500380000000     0.412470000000     0.176730000000    -0.773089   
O115     O      0.678720000000     0.503760000000     0.093730000000    -0.572857   
O116     O      0.683280000000     0.506470000000     0.915890000000    -0.610628   
O117     O      0.595080000000     0.506820000000     0.176660000000    -0.725562   
O118     O      0.599650000000     0.506000000000     0.834290000000    -0.957284   
O119     O      0.506720000000     0.678210000000     0.100510000000    -0.733543   
O120     O      0.504030000000     0.331950000000     0.091880000000    -0.974568   
O121     O      0.492470000000     0.340230000000     0.913240000000    -1.11472    
O122     O      0.495840000000     0.686940000000     0.922710000000    -0.755648   
O123     O      0.678110000000     0.598260000000     0.013800000000    -0.570317   
O124     O      0.683020000000     0.418830000000     0.995040000000    -0.604154   
O125     O      0.571380000000     0.440620000000     0.933270000000    -2.03697    
O126     O      0.568970000000     0.567780000000     0.068580000000    -1.57984    
O127     O      0.580560000000     0.437460000000     0.076060000000    -1.24238    
O128     O      0.579560000000     0.585130000000     0.940060000000    -1.21849    
Tb1      Tb     0.004340000000     0.008370000000     0.120710000000     6.56907    
Tb2      Tb     0.009070000000     0.897660000000     0.013450000000     4.20195    
Tb3      Tb     0.004220000000     0.121890000000     0.008470000000     6.49932    
Tb4      Tb     0.894500000000     0.010300000000     0.012600000000     4.16532    
Tb5      Tb     0.119070000000     0.008630000000     0.008510000000     6.52407    
Tb6      Tb     0.009660000000     0.011760000000     0.898860000000     3.2133     
Tb7      Tb     0.007020000000     0.509950000000     0.395870000000     6.30567    
Tb8      Tb     0.007970000000     0.620290000000     0.504490000000     4.44056    
Tb9      Tb     0.005910000000     0.396340000000     0.508790000000     6.45642    
Tb10     Tb     0.896290000000     0.505830000000     0.502760000000     4.36017    
Tb11     Tb     0.119420000000     0.511420000000     0.509230000000     6.24239    
Tb12     Tb     0.009830000000     0.505320000000     0.619000000000     3.12502    
Tb13     Tb     0.503170000000     0.003520000000     0.395690000000     6.31734    
Tb14     Tb     0.393710000000     0.013000000000     0.503730000000     4.27672    
Tb15     Tb     0.617060000000     0.011660000000     0.508390000000     6.37964    
Tb16     Tb     0.507800000000     0.899800000000     0.509540000000     4.32977    
Tb17     Tb     0.503090000000     0.124220000000     0.501870000000     6.41163    
Tb18     Tb     0.508410000000     0.020860000000     0.617840000000     3.1222     
Tb19     Tb     0.396240000000     0.509000000000     0.007840000000     6.53029    
Tb20     Tb     0.503270000000     0.620630000000     0.008310000000     4.24923    
Tb21     Tb     0.510000000000     0.395650000000     0.003760000000     6.55218    
Tb22     Tb     0.504390000000     0.502890000000     0.116810000000     4.38867    
Tb23     Tb     0.509120000000     0.514080000000     0.894470000000     6.50605    
Tb24     Tb     0.619440000000     0.506630000000     0.002960000000     3.02961    


