data_structure

_audit_creation_method RASPA-1.0
_audit_creation_date 2023-5-19
_audit_author_name 'Poobodin Mano'

_cell_length_a    32.4384
_cell_length_b    32.3741
_cell_length_c    32.4269
_cell_angle_alpha 90
_cell_angle_beta  90
_cell_angle_gamma 90
_cell_volume      34053.6

_symmetry_cell_setting          triclinic
_symmetry_space_group_name_Hall 'P 1'
_symmetry_space_group_name_H-M  'P 1'
_symmetry_Int_Tables_number     1

_symmetry_equiv_pos_as_xyz 'x,y,z'

loop_
_atom_site_label
_atom_site_type_symbol
_atom_site_fract_x
_atom_site_fract_y
_atom_site_fract_z
_atom_site_charge
C1       C      0.018100000000     0.102380000000     0.098910000000     0.722652   
C2       C      0.004150000000     0.910560000000     0.103250000000     0.681073   
C3       C      0.906330000000     0.014460000000     0.101740000000     0.680403   
C4       C      0.097950000000     0.016930000000     0.101060000000     0.735908   
C5       C      0.998380000000     0.909580000000     0.913880000000     0.571715   
C6       C      0.013060000000     0.100520000000     0.908760000000     0.649041   
C7       C      0.905610000000     0.913920000000     0.007970000000     0.578189   
C8       C      0.096380000000     0.906690000000     0.017210000000     0.690301   
C9       C      0.101060000000     0.098540000000     0.015560000000     0.710998   
C10      C      0.910200000000     0.105060000000     0.012250000000     0.691167   
C11      C      0.910560000000     0.002910000000     0.910650000000     0.566142   
C12      C      0.100040000000     0.003270000000     0.908580000000     0.6358     
C13      C      0.010240000000     0.411380000000     0.410130000000     0.723596   
C14      C      0.002450000000     0.604380000000     0.412240000000     0.672254   
C15      C      0.904090000000     0.505570000000     0.412260000000     0.66596    
C16      C      0.097740000000     0.494870000000     0.410830000000     0.731133   
C17      C      0.004800000000     0.598920000000     0.602310000000     0.567656   
C18      C      0.012080000000     0.408700000000     0.601660000000     0.651612   
C19      C      0.908850000000     0.600490000000     0.512460000000     0.591154   
C20      C      0.099150000000     0.603180000000     0.498580000000     0.68926    
C21      C      0.097880000000     0.411090000000     0.490250000000     0.722118   
C22      C      0.907010000000     0.409580000000     0.500820000000     0.686063   
C23      C      0.911300000000     0.507260000000     0.602620000000     0.577562   
C24      C      0.101100000000     0.499190000000     0.602390000000     0.643992   
C25      C      0.598240000000     0.020500000000     0.411100000000     0.724865   
C26      C      0.406800000000     0.012080000000     0.409480000000     0.670744   
C27      C      0.507210000000     0.911430000000     0.407170000000     0.686229   
C28      C      0.516530000000     0.103640000000     0.413720000000     0.749528   
C29      C      0.410040000000     0.001430000000     0.600130000000     0.55806    
C30      C      0.600110000000     0.010000000000     0.602560000000     0.637672   
C31      C      0.409520000000     0.911260000000     0.505800000000     0.591609   
C32      C      0.407380000000     0.102660000000     0.499800000000     0.694394   
C33      C      0.597980000000     0.101070000000     0.493640000000     0.722421   
C34      C      0.599310000000     0.909040000000     0.497070000000     0.684786   
C35      C      0.500810000000     0.909600000000     0.597480000000     0.57649    
C36      C      0.507610000000     0.101290000000     0.603910000000     0.666515   
C37      C      0.413120000000     0.405900000000     0.995460000000     0.733739   
C38      C      0.403120000000     0.598640000000     0.003200000000     0.671239   
C39      C      0.406530000000     0.498790000000     0.101890000000     0.670794   
C40      C      0.410230000000     0.487940000000     0.910030000000     0.727775   
C41      C      0.592880000000     0.605290000000     0.007370000000     0.563801   
C42      C      0.603910000000     0.414310000000     0.000130000000     0.646382   
C43      C      0.501600000000     0.600830000000     0.099730000000     0.591591   
C44      C      0.492010000000     0.602250000000     0.909280000000     0.68776    
C45      C      0.495120000000     0.410160000000     0.911940000000     0.728249   
C46      C      0.501890000000     0.410070000000     0.102770000000     0.689535   
C47      C      0.597150000000     0.513530000000     0.099860000000     0.568093   
C48      C      0.600310000000     0.504190000000     0.909500000000     0.652001   
C49      C      0.521600000000     0.205790000000     0.361930000000    -0.124885   
C50      C      0.507270000000     0.339260000000     0.121820000000     0.113176   
C51      C      0.500980000000     0.390500000000     0.173670000000     0.104483   
C52      C      0.510190000000     0.308400000000     0.151700000000    -0.12117    
C53      C      0.492440000000     0.248520000000     0.221740000000    -0.035597   
C54      C      0.496140000000     0.218200000000     0.252180000000    -0.0344182  
C55      C      0.513180000000     0.286430000000     0.225680000000    -0.0130812  
C56      C      0.504050000000     0.360400000000     0.204390000000    -0.116239   
C57      C      0.520770000000     0.225060000000     0.287200000000    -0.0151233  
C58      C      0.524680000000     0.151620000000     0.311710000000    -0.123287   
C59      C      0.542000000000     0.262770000000     0.290800000000    -0.0343811  
C60      C      0.523840000000     0.122690000000     0.343570000000     0.11039    
C61      C      0.520830000000     0.176330000000     0.393560000000     0.119313   
C62      C      0.538160000000     0.293140000000     0.260440000000    -0.0354158  
C63      C      0.508950000000     0.318800000000     0.193550000000     0.0638059  
C64      C      0.522830000000     0.193710000000     0.320640000000     0.0672113  
C65      C      0.513590000000     0.860760000000     0.304810000000    -0.121904   
C66      C      0.503020000000     0.620220000000     0.170580000000     0.0991642  
C67      C      0.504530000000     0.671890000000     0.118760000000     0.0986231  
C68      C      0.504140000000     0.650310000000     0.201340000000    -0.112792   
C69      C      0.480380000000     0.722150000000     0.257120000000    -0.0359509  
C70      C      0.481110000000     0.752850000000     0.287360000000    -0.0342622  
C71      C      0.506800000000     0.724450000000     0.222870000000    -0.0115878  
C72      C      0.506050000000     0.702760000000     0.148760000000    -0.112588   
C73      C      0.508480000000     0.786380000000     0.284130000000    -0.0140363  
C74      C      0.504670000000     0.809810000000     0.357710000000    -0.116984   
C75      C      0.535190000000     0.788380000000     0.250010000000    -0.034213   
C76      C      0.504730000000     0.841210000000     0.387100000000     0.10187    
C77      C      0.514090000000     0.891870000000     0.334820000000     0.117151   
C78      C      0.534230000000     0.757840000000     0.219640000000    -0.0358184  
C79      C      0.505690000000     0.692110000000     0.190580000000     0.0601526  
C80      C      0.508850000000     0.819370000000     0.315980000000     0.0649352  
C81      C      0.498800000000     0.807040000000     0.648870000000    -0.115499   
C82      C      0.485350000000     0.673040000000     0.889910000000     0.104833   
C83      C      0.491500000000     0.621500000000     0.838370000000     0.113275   
C84      C      0.484660000000     0.703950000000     0.859800000000    -0.114858   
C85      C      0.463170000000     0.760370000000     0.787240000000    -0.0341988  
C86      C      0.464540000000     0.790580000000     0.756390000000    -0.0348155  
C87      C      0.489470000000     0.725870000000     0.785590000000    -0.0126276  
C88      C      0.491040000000     0.651590000000     0.807540000000    -0.119679   
C89      C      0.492310000000     0.787010000000     0.723260000000    -0.0112802  
C90      C      0.490530000000     0.860710000000     0.699030000000    -0.108096   
C91      C      0.518890000000     0.752720000000     0.721940000000    -0.035058   
C92      C      0.493040000000     0.889910000000     0.667460000000     0.092268   
C93      C      0.501530000000     0.836780000000     0.617570000000     0.112423   
C94      C      0.517440000000     0.722520000000     0.752650000000    -0.0342763  
C95      C      0.488060000000     0.693440000000     0.818040000000     0.0639657  
C96      C      0.493620000000     0.818700000000     0.690000000000     0.0612724  
C97      C      0.501910000000     0.202490000000     0.656940000000    -0.122147   
C98      C      0.495620000000     0.338850000000     0.894230000000     0.116081   
C99      C      0.489070000000     0.389320000000     0.841670000000     0.112806   
C100     C      0.496360000000     0.307370000000     0.864940000000    -0.123933   
C101     C      0.477780000000     0.245910000000     0.796670000000    -0.0342502  
C102     C      0.481450000000     0.214980000000     0.766820000000    -0.0349633  
C103     C      0.497700000000     0.284140000000     0.791420000000    -0.0144104  
C104     C      0.489760000000     0.358550000000     0.811510000000    -0.12273    
C105     C      0.505040000000     0.221740000000     0.731140000000    -0.0131071  
C106     C      0.511530000000     0.148470000000     0.706580000000    -0.112742   
C107     C      0.525540000000     0.259670000000     0.726290000000    -0.0352542  
C108     C      0.512000000000     0.119730000000     0.674470000000     0.0953752  
C109     C      0.502020000000     0.173310000000     0.625200000000     0.119724   
C110     C      0.521900000000     0.290520000000     0.756070000000    -0.0342444  
C111     C      0.494080000000     0.317050000000     0.823000000000     0.0667505  
C112     C      0.506560000000     0.190370000000     0.697900000000     0.0643886  
C113     C      0.850660000000     0.311680000000     0.513120000000    -0.11938    
C114     C      0.618430000000     0.171510000000     0.497100000000     0.117232   
C115     C      0.666050000000     0.120910000000     0.474510000000     0.108963   
C116     C      0.648520000000     0.202150000000     0.494140000000    -0.122683   
C117     C      0.711890000000     0.266500000000     0.473360000000    -0.0342403  
C118     C      0.742450000000     0.296840000000     0.475780000000    -0.0347704  
C119     C      0.721540000000     0.224470000000     0.479140000000    -0.0132017  
C120     C      0.696520000000     0.151040000000     0.469800000000    -0.119862   
C121     C      0.783910000000     0.286070000000     0.482770000000    -0.0122415  
C122     C      0.813140000000     0.356960000000     0.468030000000    -0.114977   
C123     C      0.793830000000     0.243880000000     0.486390000000    -0.0349386  
C124     C      0.843250000000     0.387130000000     0.474200000000     0.103849   
C125     C      0.881030000000     0.342000000000     0.517880000000     0.115249   
C126     C      0.763120000000     0.213690000000     0.485330000000    -0.0341185  
C127     C      0.688400000000     0.192310000000     0.480480000000     0.0645816  
C128     C      0.816420000000     0.318510000000     0.487630000000     0.0630303  
C129     C      0.855390000000     0.701400000000     0.519280000000    -0.117446   
C130     C      0.617860000000     0.838030000000     0.490980000000     0.104426   
C131     C      0.669860000000     0.888760000000     0.499540000000     0.111717   
C132     C      0.647420000000     0.806650000000     0.491660000000    -0.116551   
C133     C      0.720930000000     0.749960000000     0.473080000000    -0.0350726  
C134     C      0.751290000000     0.719390000000     0.476080000000    -0.0351376  
C135     C      0.720700000000     0.783580000000     0.500510000000    -0.0130278  
C136     C      0.700140000000     0.858150000000     0.500710000000    -0.119293   
C137     C      0.781890000000     0.721660000000     0.506760000000    -0.0125903  
C138     C      0.806740000000     0.648170000000     0.503010000000    -0.113454   
C139     C      0.781010000000     0.754940000000     0.534660000000    -0.0348514  
C140     C      0.838460000000     0.619120000000     0.505690000000     0.0962101  
C141     C      0.886510000000     0.671640000000     0.522710000000     0.109813   
C142     C      0.750930000000     0.785580000000     0.531440000000    -0.03477    
C143     C      0.689040000000     0.816510000000     0.497230000000     0.0637571  
C144     C      0.815070000000     0.689990000000     0.509360000000     0.0616032  
C145     C      0.150680000000     0.310390000000     0.476950000000    -0.123361   
C146     C      0.388720000000     0.173810000000     0.499600000000     0.114531   
C147     C      0.337100000000     0.122580000000     0.491830000000     0.10406    
C148     C      0.359120000000     0.205000000000     0.497260000000    -0.12089    
C149     C      0.292800000000     0.265020000000     0.469360000000    -0.0352856  
C150     C      0.262520000000     0.295740000000     0.467790000000    -0.0344446  
C151     C      0.285410000000     0.227650000000     0.490300000000    -0.0128651  
C152     C      0.306710000000     0.153020000000     0.489210000000    -0.115886   
C153     C      0.224140000000     0.289660000000     0.486910000000    -0.0148569  
C154     C      0.200360000000     0.363330000000     0.490870000000    -0.122697   
C155     C      0.216870000000     0.252460000000     0.508040000000    -0.0344834  
C156     C      0.168570000000     0.392400000000     0.491070000000     0.111546   
C157     C      0.119290000000     0.340040000000     0.476820000000     0.115104   
C158     C      0.247130000000     0.221870000000     0.509770000000    -0.03528    
C159     C      0.317480000000     0.194860000000     0.492100000000     0.06368    
C160     C      0.191430000000     0.321650000000     0.484730000000     0.0666199  
C161     C      0.151850000000     0.704650000000     0.491850000000    -0.120369   
C162     C      0.390970000000     0.840050000000     0.508310000000     0.0993702  
C163     C      0.338780000000     0.891240000000     0.505250000000     0.0976636  
C164     C      0.361300000000     0.808810000000     0.507750000000    -0.11195    
C165     C      0.289370000000     0.751560000000     0.528940000000    -0.0359417  
C166     C      0.258910000000     0.721050000000     0.526960000000    -0.0336642  
C167     C      0.287590000000     0.786220000000     0.502900000000    -0.0109251  
C168     C      0.308350000000     0.860750000000     0.504280000000    -0.111143   
C169     C      0.226170000000     0.724430000000     0.498720000000    -0.0143175  
C170     C      0.201580000000     0.650880000000     0.502010000000    -0.120719   
C171     C      0.224910000000     0.758800000000     0.472200000000    -0.0338951  
C172     C      0.169690000000     0.621960000000     0.501410000000     0.110038   
C173     C      0.120310000000     0.675150000000     0.490840000000     0.114785   
C174     C      0.255150000000     0.789400000000     0.474400000000    -0.036063   
C175     C      0.319470000000     0.818980000000     0.505240000000     0.0596638  
C176     C      0.192860000000     0.692850000000     0.497530000000     0.0659533  
C177     C      0.802290000000     0.506680000000     0.359440000000    -0.119818   
C178     C      0.668050000000     0.517620000000     0.118920000000     0.0931261  
C179     C      0.616700000000     0.515740000000     0.170840000000     0.0974163  
C180     C      0.699080000000     0.518130000000     0.148780000000    -0.107682   
C181     C      0.757560000000     0.492470000000     0.217300000000    -0.0359595  
C182     C      0.787920000000     0.490920000000     0.247920000000    -0.0340512  
C183     C      0.721620000000     0.516190000000     0.222890000000    -0.0101654  
C184     C      0.647000000000     0.516220000000     0.201530000000    -0.109053   
C185     C      0.783030000000     0.512960000000     0.284940000000    -0.0139785  
C186     C      0.856540000000     0.510930000000     0.309590000000    -0.118455   
C187     C      0.747360000000     0.537100000000     0.290300000000    -0.0341488  
C188     C      0.885320000000     0.508970000000     0.341610000000     0.105156   
C189     C      0.831540000000     0.504840000000     0.391200000000     0.111763   
C190     C      0.717050000000     0.538690000000     0.259690000000    -0.0361906  
C191     C      0.688850000000     0.517040000000     0.190710000000     0.0576446  
C192     C      0.814440000000     0.510170000000     0.318320000000     0.0642176  
C193     C      0.198550000000     0.487570000000     0.356910000000    -0.124613   
C194     C      0.385340000000     0.494270000000     0.172270000000     0.100824   
C195     C      0.335270000000     0.494120000000     0.119060000000     0.109493   
C196     C      0.354350000000     0.491120000000     0.202100000000    -0.114652   
C197     C      0.283910000000     0.461490000000     0.256430000000    -0.0357506  
C198     C      0.253050000000     0.459900000000     0.286470000000    -0.0346623  
C199     C      0.279330000000     0.486640000000     0.221400000000    -0.0125909  
C200     C      0.303590000000     0.490990000000     0.148020000000    -0.119615   
C201     C      0.216840000000     0.483440000000     0.282240000000    -0.0150711  
C202     C      0.143550000000     0.484370000000     0.307770000000    -0.121577   
C203     C      0.211760000000     0.507780000000     0.246730000000    -0.0345892  
C204     C      0.115230000000     0.487360000000     0.340130000000     0.105265   
C205     C      0.169800000000     0.490950000000     0.388940000000     0.118862   
C206     C      0.242660000000     0.509410000000     0.216680000000    -0.0358954  
C207     C      0.312830000000     0.489500000000     0.190140000000     0.0618714  
C208     C      0.185780000000     0.484550000000     0.315980000000     0.0658645  
C209     C      0.155340000000     0.495640000000     0.703000000000    -0.118103   
C210     C      0.392820000000     0.477310000000     0.839380000000     0.112174   
C211     C      0.339850000000     0.481200000000     0.889500000000     0.110952   
C212     C      0.363640000000     0.474200000000     0.807860000000    -0.12148    
C213     C      0.297360000000     0.497000000000     0.746310000000    -0.0344068  
C214     C      0.267080000000     0.499020000000     0.715640000000    -0.0349108  
C215     C      0.289960000000     0.475790000000     0.783520000000    -0.0133988  
C216     C      0.309810000000     0.478510000000     0.858660000000    -0.120479   
C217     C      0.228510000000     0.480220000000     0.721550000000    -0.0130628  
C218     C      0.202890000000     0.481090000000     0.648320000000    -0.117974   
C219     C      0.221330000000     0.458320000000     0.758300000000    -0.0351175  
C220     C      0.170970000000     0.486510000000     0.619860000000     0.106488   
C221     C      0.123920000000     0.501740000000     0.673980000000     0.113527   
C222     C      0.251700000000     0.456000000000     0.788830000000    -0.0345091  
C223     C      0.321470000000     0.475650000000     0.817080000000     0.0644215  
C224     C      0.195140000000     0.485160000000     0.690480000000     0.064218   
C225     C      0.859330000000     0.509090000000     0.704600000000    -0.115143   
C226     C      0.619140000000     0.501310000000     0.838570000000     0.112055   
C227     C      0.671110000000     0.504120000000     0.889900000000     0.0992524  
C228     C      0.648960000000     0.500900000000     0.807560000000    -0.118509   
C229     C      0.717790000000     0.526100000000     0.749290000000    -0.0345348  
C230     C      0.748430000000     0.526930000000     0.719020000000    -0.0347734  
C231     C      0.722970000000     0.502420000000     0.785280000000    -0.0121158  
C232     C      0.701730000000     0.503700000000     0.859650000000    -0.111607   
C233     C      0.784940000000     0.504130000000     0.724100000000    -0.0120033  
C234     C      0.809050000000     0.504880000000     0.650640000000    -0.112103   
C235     C      0.789900000000     0.480070000000     0.759850000000    -0.0346456  
C236     C      0.840810000000     0.506070000000     0.621690000000     0.0984513  
C237     C      0.890840000000     0.510520000000     0.675120000000     0.110718   
C238     C      0.759280000000     0.479230000000     0.790090000000    -0.0345227  
C239     C      0.690830000000     0.502230000000     0.817880000000     0.0627965  
C240     C      0.818140000000     0.505930000000     0.692640000000     0.0626531  
C241     C      0.642760000000     0.708680000000     0.002820000000    -0.12546    
C242     C      0.883990000000     0.844120000000     0.017610000000     0.0951724  
C243     C      0.834420000000     0.895580000000     0.002410000000     0.0877681  
C244     C      0.853310000000     0.813810000000     0.018440000000    -0.113407   
C245     C      0.786460000000     0.752800000000     0.994260000000    -0.0250669  
C246     C      0.755710000000     0.722460000000     0.994530000000    -0.0246344  
C247     C      0.779130000000     0.792170000000     0.011150000000    -0.0218806  
C248     C      0.802900000000     0.866000000000     0.003060000000    -0.119321   
C249     C      0.716700000000     0.730610000000     0.011690000000    -0.0228841  
C250     C      0.693030000000     0.656870000000     0.018640000000    -0.11096    
C251     C      0.709350000000     0.769980000000     0.028590000000    -0.0337221  
C252     C      0.662020000000     0.626950000000     0.017100000000     0.0911145  
C253     C      0.612030000000     0.678120000000     0.001110000000     0.104732   
C254     C      0.740130000000     0.800340000000     0.028320000000    -0.0343259  
C255     C      0.812110000000     0.824400000000     0.010900000000     0.0624583  
C256     C      0.683730000000     0.698360000000     0.011380000000     0.0649933  
C257     C      0.861460000000     0.207810000000     0.020870000000    -0.124675   
C258     C      0.624850000000     0.344200000000     0.994740000000     0.119698   
C259     C      0.675240000000     0.396920000000     0.001400000000     0.0961777  
C260     C      0.655410000000     0.314020000000     0.994690000000    -0.12906    
C261     C      0.729430000000     0.260520000000     0.973040000000    -0.0200679  
C262     C      0.759240000000     0.229620000000     0.976090000000    -0.0278559  
C263     C      0.729160000000     0.293570000000     0.001060000000    -0.0387037  
C264     C      0.706600000000     0.367430000000     0.001920000000    -0.130595   
C265     C      0.789140000000     0.231000000000     0.007440000000    -0.0233632  
C266     C      0.810510000000     0.156800000000     0.003920000000    -0.128302   
C267     C      0.788780000000     0.264170000000     0.035450000000    -0.0360527  
C268     C      0.840870000000     0.126470000000     0.005930000000     0.0965752  
C269     C      0.891370000000     0.176810000000     0.023370000000     0.118733   
C270     C      0.759190000000     0.295250000000     0.032150000000    -0.0277795  
C271     C      0.696720000000     0.325480000000     0.998810000000     0.0909188  
C272     C      0.820770000000     0.198110000000     0.010700000000     0.0698716  
C273     C      0.194950000000     0.851230000000     0.030810000000    -0.123529   
C274     C      0.331420000000     0.614480000000     0.003040000000     0.109831   
C275     C      0.380750000000     0.668470000000     0.006810000000     0.103243   
C276     C      0.299300000000     0.643030000000     0.005640000000    -0.123191   
C277     C      0.241320000000     0.715790000000     0.986870000000    -0.0253891  
C278     C      0.210970000000     0.746230000000     0.989860000000    -0.0248242  
C279     C      0.274910000000     0.715770000000     0.014120000000    -0.0234611  
C280     C      0.349440000000     0.697730000000     0.010000000000    -0.119362   
C281     C      0.213500000000     0.776950000000     0.020450000000    -0.0236285  
C282     C      0.141040000000     0.803120000000     0.014610000000    -0.119692   
C283     C      0.246550000000     0.776000000000     0.048490000000    -0.0335608  
C284     C      0.112970000000     0.835660000000     0.014440000000     0.103998   
C285     C      0.166170000000     0.883380000000     0.031140000000     0.118477   
C286     C      0.277060000000     0.745870000000     0.045190000000    -0.0340612  
C287     C      0.308250000000     0.685070000000     0.009740000000     0.0660302  
C288     C      0.182700000000     0.810780000000     0.022110000000     0.067457   
C289     C      0.362950000000     0.302570000000     0.997720000000    -0.127032   
C290     C      0.121360000000     0.169320000000     0.017240000000     0.110298   
C291     C      0.172360000000     0.116960000000     0.018330000000     0.107747   
C292     C      0.151740000000     0.199860000000     0.015510000000    -0.122719   
C293     C      0.220830000000     0.254500000000     0.983270000000    -0.0284466  
C294     C      0.251600000000     0.284510000000     0.978930000000    -0.020803   
C295     C      0.226090000000     0.220980000000     0.010410000000    -0.0213827  
C296     C      0.203580000000     0.146780000000     0.016790000000    -0.12135    
C297     C      0.288430000000     0.281830000000     0.001660000000    -0.03681    
C298     C      0.311720000000     0.355560000000     0.993090000000    -0.125925   
C299     C      0.293550000000     0.248380000000     0.028970000000    -0.0295559  
C300     C      0.343100000000     0.385070000000     0.991170000000     0.111433   
C301     C      0.394080000000     0.332630000000     0.996050000000     0.118466   
C302     C      0.262850000000     0.218310000000     0.033200000000    -0.0371933  
C303     C      0.193460000000     0.188830000000     0.014570000000     0.0643804  
C304     C      0.321370000000     0.313730000000     0.997190000000     0.0807379  
C305     C      0.858460000000     0.993010000000     0.809390000000    -0.104454   
C306     C      0.619330000000     0.013440000000     0.673450000000     0.0967602  
C307     C      0.670990000000     0.008360000000     0.621990000000     0.108063   
C308     C      0.649280000000     0.013040000000     0.704410000000    -0.113029   
C309     C      0.722390000000     0.034890000000     0.760100000000    -0.0332911  
C310     C      0.752920000000     0.033070000000     0.790520000000    -0.0351748  
C311     C      0.723140000000     0.007510000000     0.726490000000    -0.0208829  
C312     C      0.701690000000     0.007380000000     0.652200000000    -0.118874   
C313     C      0.784690000000     0.003540000000     0.788240000000    -0.0170766  
C314     C      0.808890000000     0.009290000000     0.861740000000    -0.109179   
C315     C      0.784980000000     0.975800000000     0.754810000000    -0.0284439  
C316     C      0.840400000000     0.008470000000     0.891050000000     0.0943438  
C317     C      0.889550000000     0.991620000000     0.839370000000     0.113419   
C318     C      0.754720000000     0.977920000000     0.724210000000    -0.0257767  
C319     C      0.690980000000     0.009530000000     0.693970000000     0.0633137  
C320     C      0.817720000000     0.002040000000     0.820200000000     0.0531075  
C321     C      0.153070000000     0.995070000000     0.807570000000    -0.109359   
C322     C      0.391510000000     0.000960000000     0.671230000000     0.0912087  
C323     C      0.339350000000     0.997330000000     0.620200000000     0.101895   
C324     C      0.361900000000     0.000990000000     0.702440000000    -0.122508   
C325     C      0.294010000000     0.979810000000     0.763080000000    -0.0212386  
C326     C      0.263870000000     0.981010000000     0.793920000000    -0.0302698  
C327     C      0.287970000000     0.000540000000     0.725380000000    -0.0324949  
C328     C      0.308900000000     0.997090000000     0.650710000000    -0.115525   
C329     C      0.226910000000     0.002690000000     0.787620000000    -0.0173141  
C330     C      0.202490000000     0.008040000000     0.860960000000    -0.115913   
C331     C      0.221010000000     0.023740000000     0.750180000000    -0.0383305  
C332     C      0.170530000000     0.007720000000     0.889860000000     0.103579   
C333     C      0.121530000000     0.994220000000     0.836990000000     0.115214   
C334     C      0.251200000000     0.022770000000     0.719490000000    -0.0291982  
C335     C      0.319950000000     0.999340000000     0.692460000000     0.0808425  
C336     C      0.193810000000     0.002180000000     0.819230000000     0.0555826  
C337     C      0.150820000000     0.018650000000     0.202450000000    -0.122293   
C338     C      0.389080000000     0.018370000000     0.338450000000     0.109092   
C339     C      0.336270000000     0.015410000000     0.388850000000     0.0997527  
C340     C      0.359820000000     0.021940000000     0.307080000000    -0.119277   
C341     C      0.291910000000     0.004940000000     0.245370000000    -0.0432608  
C342     C      0.261660000000     0.006710000000     0.214710000000    -0.0423184  
C343     C      0.286070000000     0.025030000000     0.283440000000    -0.0105982  
C344     C      0.306160000000     0.018650000000     0.358180000000    -0.11437    
C345     C      0.224730000000     0.028300000000     0.221500000000    -0.0127404  
C346     C      0.199340000000     0.032710000000     0.148490000000    -0.121058   
C347     C      0.219120000000     0.048970000000     0.259180000000    -0.0356165  
C348     C      0.167440000000     0.029590000000     0.119740000000     0.103958   
C349     C      0.119350000000     0.014800000000     0.173130000000     0.111335   
C350     C      0.249480000000     0.047500000000     0.289730000000    -0.0363903  
C351     C      0.317710000000     0.021990000000     0.316630000000     0.0597814  
C352     C      0.191180000000     0.027230000000     0.190370000000     0.0628318  
C353     C      0.854760000000     0.024160000000     0.203380000000    -0.126135   
C354     C      0.616300000000     0.028020000000     0.340240000000     0.11028    
C355     C      0.668740000000     0.026020000000     0.391080000000     0.109219   
C356     C      0.645830000000     0.029340000000     0.308940000000    -0.120953   
C357     C      0.715330000000     0.049640000000     0.249290000000    -0.0441311  
C358     C      0.745380000000     0.047620000000     0.218380000000    -0.0257499  
C359     C      0.719730000000     0.026720000000     0.285910000000    -0.00210644 
C360     C      0.699060000000     0.027550000000     0.360570000000    -0.120146   
C361     C      0.780550000000     0.022820000000     0.223560000000    -0.0322462  
C362     C      0.804080000000     0.018420000000     0.149920000000    -0.119005   
C363     C      0.784750000000     0.999650000000     0.259950000000    -0.00493235 
C364     C      0.835790000000     0.016520000000     0.120830000000     0.0993409  
C365     C      0.886140000000     0.022760000000     0.173790000000     0.11802    
C366     C      0.754700000000     0.001500000000     0.290680000000    -0.0642586  
C367     C      0.687830000000     0.028360000000     0.318840000000     0.0590091  
C368     C      0.813450000000     0.021740000000     0.191760000000     0.0698773  
C369     C      0.047990000000     0.163210000000     0.821930000000    -0.116682   
C370     C      0.020130000000     0.389270000000     0.671770000000     0.100862   
C371     C      0.012510000000     0.337720000000     0.620410000000     0.112073   
C372     C      0.021800000000     0.359260000000     0.702420000000    -0.11676    
C373     C      0.999880000000     0.293660000000     0.763630000000    -0.0254474  
C374     C      0.999850000000     0.263620000000     0.794390000000    -0.0276749  
C375     C      0.016970000000     0.285290000000     0.724650000000    -0.0216222  
C376     C      0.012890000000     0.306920000000     0.650400000000    -0.121411   
C377     C      0.015960000000     0.224080000000     0.786660000000    -0.0189171  
C378     C      0.983870000000     0.189880000000     0.848310000000    -0.110106   
C379     C      0.032440000000     0.215500000000     0.747470000000    -0.03504    
C380     C      0.984470000000     0.159450000000     0.878610000000     0.119737   
C381     C      0.047060000000     0.132210000000     0.851810000000     0.111693   
C382     C      0.033420000000     0.245860000000     0.717040000000    -0.0332756  
C383     C      0.017360000000     0.317490000000     0.692080000000     0.0652673  
C384     C      0.015800000000     0.191930000000     0.819280000000     0.0578311  
C385     C      0.971720000000     0.815560000000     0.855460000000    -0.101374   
C386     C      0.006570000000     0.669760000000     0.622550000000     0.0955861  
C387     C      0.006520000000     0.617630000000     0.673550000000     0.0925429  
C388     C      0.005550000000     0.700400000000     0.652890000000    -0.110364   
C389     C      0.019660000000     0.762550000000     0.720390000000    -0.0335619  
C390     C      0.017570000000     0.793190000000     0.750720000000    -0.0356406  
C391     C      0.004910000000     0.722300000000     0.727960000000    -0.0185302  
C392     C      0.007130000000     0.647470000000     0.704750000000    -0.108018   
C393     C      0.002140000000     0.784460000000     0.790390000000    -0.0155529  
C394     C      0.027890000000     0.850880000000     0.822610000000    -0.103669   
C395     C      0.988250000000     0.743970000000     0.798280000000    -0.0283984  
C396     C      0.025490000000     0.881500000000     0.852800000000     0.0854265  
C397     C      0.971060000000     0.846010000000     0.886280000000     0.106582   
C398     C      0.988920000000     0.713720000000     0.767460000000    -0.0259244  
C399     C      0.005870000000     0.689740000000     0.694900000000     0.0581552  
C400     C      0.000580000000     0.817270000000     0.823180000000     0.0484162  
C401     C      0.990660000000     0.705040000000     0.360610000000    -0.113264   
C402     C      0.010810000000     0.840380000000     0.123510000000     0.106098   
C403     C      0.001390000000     0.892380000000     0.174270000000     0.106111   
C404     C      0.012040000000     0.810020000000     0.153850000000    -0.121745   
C405     C      0.037690000000     0.758890000000     0.228930000000    -0.0328553  
C406     C      0.036800000000     0.728350000000     0.259260000000    -0.0354785  
C407     C      0.006680000000     0.789070000000     0.227400000000    -0.0249274  
C408     C      0.001860000000     0.862680000000     0.205370000000    -0.132011   
C409     C      0.004610000000     0.727250000000     0.288260000000    -0.020074   
C410     C      0.014800000000     0.654400000000     0.312150000000    -0.120303   
C411     C      0.973360000000     0.757300000000     0.286250000000    -0.0286026  
C412     C      0.013370000000     0.624740000000     0.343230000000     0.107162   
C413     C      0.988520000000     0.674620000000     0.391010000000     0.118224   
C414     C      0.974570000000     0.788090000000     0.256300000000    -0.0256925  
C415     C      0.007200000000     0.821070000000     0.195170000000     0.0702855  
C416     C      0.003690000000     0.695160000000     0.320780000000     0.0579049  
C417     C      0.997780000000     0.312780000000     0.354190000000    -0.112105   
C418     C      0.030840000000     0.172800000000     0.117540000000     0.105979   
C419     C      0.016710000000     0.123290000000     0.169420000000     0.112469   
C420     C      0.032390000000     0.204300000000     0.147210000000    -0.121616   
C421     C      0.054360000000     0.257780000000     0.224410000000    -0.0339266  
C422     C      0.052660000000     0.288020000000     0.255410000000    -0.0356826  
C423     C      0.022740000000     0.228370000000     0.220470000000    -0.0229126  
C424     C      0.017300000000     0.154040000000     0.199660000000    -0.124373   
C425     C      0.018930000000     0.290000000000     0.282800000000    -0.0191205  
C426     C      0.033020000000     0.361580000000     0.311100000000    -0.116063   
C427     C      0.986840000000     0.261060000000     0.277820000000    -0.0287722  
C428     C      0.029910000000     0.390900000000     0.342720000000     0.101806   
C429     C      0.993980000000     0.343000000000     0.384930000000     0.121308   
C430     C      0.988940000000     0.230500000000     0.247420000000    -0.0265462  
C431     C      0.024710000000     0.195190000000     0.188730000000     0.0651367  
C432     C      0.017060000000     0.321720000000     0.316520000000     0.0548866  
H1       H      0.973080000000     0.978130000000     0.037290000000    -1.25025    
H2       H      0.028960000000     0.030270000000     0.030210000000    -1.07389    
H3       H      0.968450000000     0.076060000000     0.967730000000    -0.504174   
H4       H      0.072560000000     0.965300000000     0.970790000000    -0.500664   
H5       H      0.973910000000     0.535310000000     0.476390000000    -1.23116    
H6       H      0.027940000000     0.481360000000     0.481070000000    -1.04774    
H7       H      0.966970000000     0.435430000000     0.543160000000    -0.510015   
H8       H      0.074300000000     0.542920000000     0.542710000000    -0.522071   
H9       H      0.474330000000     0.977670000000     0.473900000000    -1.25785    
H10      H      0.528500000000     0.031310000000     0.481610000000    -1.09344    
H11      H      0.573770000000     0.968010000000     0.541670000000    -0.493082   
H12      H      0.466110000000     0.075280000000     0.543660000000    -0.574501   
H13      H      0.470750000000     0.533790000000     0.034580000000    -1.23131    
H14      H      0.479810000000     0.480100000000     0.980800000000    -1.08735    
H15      H      0.543230000000     0.438160000000     0.043240000000    -0.535399   
H16      H      0.538490000000     0.544820000000     0.935470000000    -0.547788   
H17      H      0.497330000000     0.422310000000     0.183470000000     0.0157175  
H18      H      0.525030000000     0.090510000000     0.334410000000     0.0125781  
H19      H      0.555110000000     0.321740000000     0.263980000000     0.0357543  
H20      H      0.478840000000     0.189790000000     0.248760000000     0.0341251  
H21      H      0.526590000000     0.140880000000     0.280130000000     0.0548795  
H22      H      0.472610000000     0.242610000000     0.195510000000     0.0342688  
H23      H      0.519960000000     0.238330000000     0.369680000000     0.0567206  
H24      H      0.502340000000     0.369670000000     0.236440000000     0.055485   
H25      H      0.514350000000     0.276660000000     0.141990000000     0.0547765  
H26      H      0.561750000000     0.268790000000     0.317040000000     0.0347172  
H27      H      0.509240000000     0.329730000000     0.089860000000     0.00733898 
H28      H      0.478500000000     0.202540000000     0.455300000000     0.0183635  
H29      H      0.504610000000     0.681610000000     0.086790000000     0.01652    
H30      H      0.500840000000     0.831670000000     0.418910000000     0.0169967  
H31      H      0.555370000000     0.760050000000     0.193870000000     0.0361083  
H32      H      0.459700000000     0.750680000000     0.312890000000     0.0350075  
H33      H      0.501650000000     0.778080000000     0.367860000000     0.0554296  
H34      H      0.458570000000     0.696990000000     0.260140000000     0.0356315  
H35      H      0.516890000000     0.869020000000     0.272580000000     0.0570482  
H36      H      0.506870000000     0.734820000000     0.139220000000     0.0541682  
H37      H      0.504270000000     0.640830000000     0.233370000000     0.0548552  
H38      H      0.557200000000     0.813350000000     0.246950000000     0.0350959  
H39      H      0.501960000000     0.588250000000     0.180450000000     0.0176902  
H40      H      0.566250000000     0.948530000000     0.315880000000     0.0241039  
H41      H      0.494210000000     0.589570000000     0.828660000000     0.00928403 
H42      H      0.490210000000     0.921990000000     0.676650000000     0.0233093  
H43      H      0.538700000000     0.696780000000     0.750890000000     0.0359167  
H44      H      0.443340000000     0.816360000000     0.758120000000     0.0368057  
H45      H      0.486860000000     0.871230000000     0.730530000000     0.0558796  
H46      H      0.441010000000     0.763650000000     0.812010000000     0.0366532  
H47      H      0.500870000000     0.774560000000     0.640970000000     0.0563534  
H48      H      0.492990000000     0.642030000000     0.775580000000     0.0558234  
H49      H      0.482520000000     0.735940000000     0.869320000000     0.0571278  
H50      H      0.541270000000     0.749410000000     0.697380000000     0.0359682  
H51      H      0.483170000000     0.682690000000     0.921840000000     0.0183203  
H52      H      0.552980000000     0.814060000000     0.561680000000     0.0277615  
H53      H      0.486170000000     0.421050000000     0.831380000000     0.0128957  
H54      H      0.516460000000     0.087680000000     0.683070000000     0.0181013  
H55      H      0.538380000000     0.319270000000     0.751580000000     0.0351647  
H56      H      0.464890000000     0.186240000000     0.771130000000     0.036018   
H57      H      0.515470000000     0.137880000000     0.738030000000     0.0550088  
H58      H      0.458680000000     0.240180000000     0.823470000000     0.0352979  
H59      H      0.496910000000     0.234810000000     0.649660000000     0.0571358  
H60      H      0.487140000000     0.367290000000     0.779370000000     0.0559491  
H61      H      0.500140000000     0.275740000000     0.875160000000     0.0569158  
H62      H      0.544470000000     0.265510000000     0.699390000000     0.0353159  
H63      H      0.498890000000     0.329820000000     0.926200000000     0.0143117  
H64      H      0.529110000000     0.203980000000     0.557080000000     0.0184534  
H65      H      0.673950000000     0.089420000000     0.466410000000     0.013632   
H66      H      0.839820000000     0.416000000000     0.457690000000     0.0165286  
H67      H      0.772240000000     0.181970000000     0.490480000000     0.0340462  
H68      H      0.733110000000     0.328810000000     0.473140000000     0.0347002  
H69      H      0.787850000000     0.363820000000     0.447380000000     0.0554433  
H70      H      0.680590000000     0.276340000000     0.467330000000     0.033926   
H71      H      0.853400000000     0.283280000000     0.530550000000     0.0562772  
H72      H      0.726220000000     0.141690000000     0.457850000000     0.0547844  
H73      H      0.640500000000     0.233100000000     0.503830000000     0.0556233  
H74      H      0.825390000000     0.233870000000     0.490530000000     0.034203   
H75      H      0.588400000000     0.180630000000     0.508560000000     0.0108482  
H76      H      0.952870000000     0.312850000000     0.534300000000     0.0194831  
H77      H      0.679910000000     0.920530000000     0.502800000000     0.0108245  
H78      H      0.830070000000     0.587300000000     0.499960000000     0.0163455  
H79      H      0.751030000000     0.810670000000     0.553550000000     0.0363971  
H80      H      0.751290000000     0.694450000000     0.453830000000     0.0348013  
H81      H      0.775750000000     0.637700000000     0.496250000000     0.053883   
H82      H      0.698140000000     0.747750000000     0.448770000000     0.0356615  
H83      H      0.862720000000     0.733560000000     0.525000000000     0.0567873  
H84      H      0.732110000000     0.867090000000     0.504420000000     0.0567296  
H85      H      0.637550000000     0.774800000000     0.488960000000     0.0554407  
H86      H      0.803420000000     0.757210000000     0.559310000000     0.0359277  
H87      H      0.585920000000     0.828910000000     0.487190000000     0.0159887  
H88      H      0.930020000000     0.689330000000     0.585410000000     0.0302194  
H89      H      0.327290000000     0.090670000000     0.489320000000     0.0152046  
H90      H      0.177390000000     0.423990000000     0.497660000000     0.013299   
H91      H      0.240680000000     0.193880000000     0.526890000000     0.0347739  
H92      H      0.268850000000     0.323930000000     0.450930000000     0.0345113  
H93      H      0.231630000000     0.373400000000     0.496940000000     0.055887   
H94      H      0.321750000000     0.270290000000     0.453590000000     0.0348486  
H95      H      0.143310000000     0.278360000000     0.470440000000     0.0562837  
H96      H      0.274970000000     0.143730000000     0.484530000000     0.0546441  
H97      H      0.368840000000     0.236860000000     0.500260000000     0.0556015  
H98      H      0.187850000000     0.247160000000     0.523700000000     0.0345105  
H99      H      0.420470000000     0.183230000000     0.504000000000     0.0088732  
H100     H      0.049440000000     0.309370000000     0.497860000000     0.016281   
H101     H      0.328670000000     0.923130000000     0.504240000000     0.0185172  
H102     H      0.178540000000     0.589960000000     0.505710000000     0.00937894 
H103     H      0.253410000000     0.815380000000     0.453410000000     0.0361762  
H104     H      0.260560000000     0.695280000000     0.548190000000     0.0354619  
H105     H      0.233010000000     0.640220000000     0.505800000000     0.0554229  
H106     H      0.313850000000     0.748460000000     0.551450000000     0.036643   
H107     H      0.144180000000     0.737060000000     0.488360000000     0.0571918  
H108     H      0.276250000000     0.869900000000     0.502920000000     0.055332   
H109     H      0.371180000000     0.776850000000     0.508350000000     0.0548431  
H110     H      0.200660000000     0.761990000000     0.449470000000     0.0348219  
H111     H      0.422990000000     0.830620000000     0.509790000000     0.0195639  
H112     H      0.065450000000     0.695540000000     0.437700000000     0.0306145  
H113     H      0.584800000000     0.514590000000     0.180760000000     0.0187319  
H114     H      0.917480000000     0.510110000000     0.332610000000     0.0113271  
H115     H      0.690160000000     0.557860000000     0.264740000000     0.0358793  
H116     H      0.814760000000     0.471640000000     0.243010000000     0.0354003  
H117     H      0.867400000000     0.513770000000     0.278130000000     0.055958   
H118     H      0.761860000000     0.474290000000     0.189590000000     0.0359618  
H119     H      0.769740000000     0.505080000000     0.366930000000     0.056342   
H120     H      0.637600000000     0.515000000000     0.233550000000     0.0540244  
H121     H      0.730950000000     0.519560000000     0.138940000000     0.0537907  
H122     H      0.742950000000     0.555070000000     0.318130000000     0.0345972  
H123     H      0.677670000000     0.518320000000     0.086910000000     0.0195254  
H124     H      0.800500000000     0.539160000000     0.455370000000     0.0241604  
H125     H      0.326410000000     0.495050000000     0.086840000000     0.007414   
H126     H      0.082920000000     0.487140000000     0.331640000000     0.0110812  
H127     H      0.238290000000     0.529460000000     0.190310000000     0.0343998  
H128     H      0.257630000000     0.440320000000     0.313170000000     0.0346194  
H129     H      0.132290000000     0.481840000000     0.276420000000     0.053974   
H130     H      0.311360000000     0.442920000000     0.260640000000     0.0352879  
H131     H      0.231210000000     0.488770000000     0.363970000000     0.0569847  
H132     H      0.272010000000     0.489270000000     0.137300000000     0.0540993  
H133     H      0.362930000000     0.490600000000     0.234370000000     0.0547748  
H134     H      0.184510000000     0.526710000000     0.242810000000     0.0339509  
H135     H      0.416980000000     0.495550000000     0.182980000000     0.0159805  
H136     H      0.197350000000     0.538820000000     0.445900000000     0.0190812  
H137     H      0.329280000000     0.484210000000     0.921080000000     0.0110182  
H138     H      0.178670000000     0.481930000000     0.587640000000     0.0107278  
H139     H      0.245120000000     0.438700000000     0.816640000000     0.0346531  
H140     H      0.273360000000     0.516560000000     0.687900000000     0.0354637  
H141     H      0.233390000000     0.473070000000     0.637310000000     0.055222   
H142     H      0.326100000000     0.513220000000     0.741290000000     0.0349621  
H143     H      0.149010000000     0.500560000000     0.735470000000     0.057487   
H144     H      0.277640000000     0.480060000000     0.867430000000     0.0556784  
H145     H      0.374250000000     0.470940000000     0.776360000000     0.05534    
H146     H      0.192080000000     0.443030000000     0.763490000000     0.0355572  
H147     H      0.425020000000     0.476660000000     0.830490000000     0.0139156  
H148     H      0.051720000000     0.488250000000     0.704470000000     0.0316582  
H149     H      0.681020000000     0.505510000000     0.921800000000     0.0204484  
H150     H      0.831570000000     0.504470000000     0.589600000000     0.0200787  
H151     H      0.763900000000     0.460110000000     0.817110000000     0.0366981  
H152     H      0.743920000000     0.546160000000     0.692060000000     0.0361168  
H153     H      0.777480000000     0.502320000000     0.640020000000     0.055397   
H154     H      0.690410000000     0.544740000000     0.744910000000     0.0357541  
H155     H      0.867000000000     0.511230000000     0.737080000000     0.0577782  
H156     H      0.733740000000     0.505240000000     0.869010000000     0.0567798  
H157     H      0.639180000000     0.499140000000     0.775660000000     0.0554497  
H158     H      0.817380000000     0.461610000000     0.764330000000     0.0366476  
H159     H      0.587140000000     0.500230000000     0.829030000000     0.0103172  
H160     H      0.958620000000     0.479150000000     0.702180000000     0.0348401  
H161     H      0.825810000000     0.927220000000     0.995660000000     0.0291245  
H162     H      0.671330000000     0.595460000000     0.023650000000     0.020285   
H163     H      0.733540000000     0.830050000000     0.042160000000     0.0342798  
H164     H      0.762300000000     0.692810000000     0.980560000000     0.0370951  
H165     H      0.724200000000     0.647380000000     0.025980000000     0.0535272  
H166     H      0.815840000000     0.745550000000     0.980130000000     0.0366172  
H167     H      0.634820000000     0.740480000000     0.995990000000     0.066295   
H168     H      0.771580000000     0.875660000000     0.996690000000     0.0648503  
H169     H      0.861900000000     0.782280000000     0.025550000000     0.0532149  
H170     H      0.679910000000     0.777210000000     0.042590000000     0.0338238  
H171     H      0.915240000000     0.834360000000     0.024320000000     0.0155362  
H172     H      0.540160000000     0.706290000000     0.019580000000     0.0222268  
H173     H      0.684140000000     0.429080000000     0.004140000000     0.0165399  
H174     H      0.831220000000     0.095100000000     0.999300000000     0.0233374  
H175     H      0.759210000000     0.320110000000     0.054520000000     0.0332978  
H176     H      0.759110000000     0.204880000000     0.953600000000     0.0354847  
H177     H      0.779110000000     0.147780000000     0.996980000000     0.0641704  
H178     H      0.706770000000     0.258760000000     0.948560000000     0.0329236  
H179     H      0.870130000000     0.239590000000     0.026840000000     0.0572399  
H180     H      0.738360000000     0.377400000000     0.004740000000     0.0584508  
H181     H      0.646610000000     0.281810000000     0.992480000000     0.060657   
H182     H      0.810920000000     0.265800000000     0.060390000000     0.0351482  
H183     H      0.593200000000     0.333810000000     0.991980000000     0.0121816  
H184     H      0.940750000000     0.189530000000     0.084180000000     0.0253702  
H185     H      0.412230000000     0.679710000000     0.007380000000     0.0147302  
H186     H      0.081230000000     0.827900000000     0.007350000000     0.0137205  
H187     H      0.302370000000     0.746040000000     0.067000000000     0.0350348  
H188     H      0.186210000000     0.746380000000     0.967470000000     0.0363607  
H189     H      0.130040000000     0.772090000000     0.008680000000     0.0536169  
H190     H      0.239170000000     0.693000000000     0.962500000000     0.0364085  
H191     H      0.227050000000     0.858010000000     0.037190000000     0.0569721  
H192     H      0.357450000000     0.730120000000     0.012530000000     0.0554569  
H193     H      0.267700000000     0.632200000000     0.005360000000     0.0538438  
H194     H      0.248940000000     0.798600000000     0.072990000000     0.0342668  
H195     H      0.323170000000     0.582130000000     0.000500000000     0.00608208 
H196     H      0.180640000000     0.934730000000     0.090040000000     0.0256797  
H197     H      0.181680000000     0.084810000000     0.019080000000     0.00998606 
H198     H      0.333310000000     0.416970000000     0.988490000000     0.0136305  
H199     H      0.267670000000     0.193260000000     0.054800000000     0.0341942  
H200     H      0.246780000000     0.309450000000     0.957200000000     0.0320245  
H201     H      0.279940000000     0.365810000000     0.992510000000     0.0584335  
H202     H      0.193170000000     0.257190000000     0.964760000000     0.0364329  
H203     H      0.371350000000     0.270210000000     0.999680000000     0.0602159  
H204     H      0.235430000000     0.136780000000     0.016070000000     0.0535385  
H205     H      0.142490000000     0.232000000000     0.014780000000     0.0535415  
H206     H      0.321110000000     0.245690000000     0.047620000000     0.0305991  
H207     H      0.089530000000     0.179540000000     0.017390000000     0.0129536  
H208     H      0.456310000000     0.309720000000     0.039170000000     0.0129402  
H209     H      0.680740000000     0.006430000000     0.590080000000     0.00921735 
H210     H      0.831580000000     0.015220000000     0.922590000000     0.0187645  
H211     H      0.755690000000     0.955960000000     0.699020000000     0.0365483  
H212     H      0.752000000000     0.055340000000     0.815420000000     0.0357695  
H213     H      0.777670000000     0.015490000000     0.871800000000     0.053628   
H214     H      0.698610000000     0.058260000000     0.762470000000     0.0354394  
H215     H      0.866290000000     0.986970000000     0.777460000000     0.0570638  
H216     H      0.733670000000     0.005140000000     0.642850000000     0.0542823  
H217     H      0.639710000000     0.014570000000     0.736380000000     0.0550232  
H218     H      0.808350000000     0.952040000000     0.752410000000     0.0360219  
H219     H      0.587400000000     0.015760000000     0.683050000000     0.0174436  
H220     H      0.940300000000     0.932140000000     0.825170000000     0.0347116  
H221     H      0.329300000000     0.995750000000     0.588360000000     0.0202026  
H222     H      0.179090000000     0.013440000000     0.921670000000     0.0129623  
H223     H      0.245840000000     0.039840000000     0.691270000000     0.0317576  
H224     H      0.269050000000     0.964080000000     0.822260000000     0.0380892  
H225     H      0.233760000000     0.013650000000     0.871240000000     0.054587   
H226     H      0.321700000000     0.961940000000     0.768510000000     0.0345524  
H227     H      0.145880000000     0.989090000000     0.775450000000     0.0571332  
H228     H      0.276880000000     0.994950000000     0.641510000000     0.0585914  
H229     H      0.371960000000     0.003230000000     0.734210000000     0.0558527  
H230     H      0.193050000000     0.041200000000     0.744690000000     0.0341425  
H231     H      0.423520000000     0.002700000000     0.680670000000     0.0196084  
H232     H      0.050420000000     0.015000000000     0.805630000000     0.0274909  
H233     H      0.325810000000     0.012820000000     0.420500000000     0.0144839  
H234     H      0.175610000000     0.034700000000     0.087720000000     0.0139397  
H235     H      0.244260000000     0.064060000000     0.318260000000     0.034899   
H236     H      0.266590000000     0.989990000000     0.186190000000     0.0418346  
H237     H      0.230260000000     0.039610000000     0.137900000000     0.0532642  
H238     H      0.319370000000     0.986840000000     0.239600000000     0.0422797  
H239     H      0.144070000000     0.013110000000     0.234740000000     0.0542845  
H240     H      0.273990000000     0.017870000000     0.367070000000     0.0531573  
H241     H      0.370320000000     0.025110000000     0.275540000000     0.0530707  
H242     H      0.191130000000     0.066260000000     0.265080000000     0.0345441  
H243     H      0.421250000000     0.018580000000     0.329400000000     0.0077254  
H244     H      0.048050000000     0.031640000000     0.203920000000     0.013447   
H245     H      0.678980000000     0.024480000000     0.422860000000     0.0114597  
H246     H      0.826510000000     0.013120000000     0.088900000000     0.0148811  
H247     H      0.758660000000     0.982660000000     0.318000000000     0.0478966  
H248     H      0.741540000000     0.066160000000     0.190840000000     0.0325779  
H249     H      0.772370000000     0.016420000000     0.139640000000     0.0545595  
H250     H      0.689000000000     0.069700000000     0.244750000000     0.0365006  
H251     H      0.862640000000     0.028060000000     0.235650000000     0.0565623  
H252     H      0.731170000000     0.027740000000     0.369730000000     0.0533561  
H253     H      0.635640000000     0.029790000000     0.277140000000     0.0531265  
H254     H      0.811200000000     0.979740000000     0.264530000000     0.03046    
H255     H      0.584200000000     0.028180000000     0.330970000000     0.00979427 
H256     H      0.953440000000     0.992230000000     0.202970000000     0.0244665  
H257     H      0.009130000000     0.328100000000     0.588590000000     0.00695798 
H258     H      0.959180000000     0.158490000000     0.900530000000     0.0136033  
H259     H      0.047410000000     0.238360000000     0.687680000000     0.0333069  
H260     H      0.987470000000     0.271680000000     0.824330000000     0.0360845  
H261     H      0.958130000000     0.211150000000     0.847430000000     0.057237   
H262     H      0.986160000000     0.323360000000     0.770480000000     0.0358084  
H263     H      0.074300000000     0.165280000000     0.801440000000     0.056077   
H264     H      0.008860000000     0.275150000000     0.640800000000     0.0539315  
H265     H      0.026620000000     0.368970000000     0.734000000000     0.0534278  
H266     H      0.044450000000     0.185210000000     0.740020000000     0.0338648  
H267     H      0.023110000000     0.421180000000     0.681360000000     0.0140652  
H268     H      0.089610000000     0.072140000000     0.825140000000     0.0290149  
H269     H      0.006860000000     0.585550000000     0.683000000000     0.0196721  
H270     H      0.048060000000     0.906000000000     0.851750000000     0.0202384  
H271     H      0.976380000000     0.683680000000     0.774890000000     0.0360144  
H272     H      0.027890000000     0.823870000000     0.742520000000     0.0347074  
H273     H      0.051850000000     0.853480000000     0.799580000000     0.0535297  
H274     H      0.033190000000     0.770800000000     0.691060000000     0.0344591  
H275     H      0.948910000000     0.791190000000     0.856510000000     0.0545326  
H276     H      0.008900000000     0.637000000000     0.736360000000     0.0522735  
H277     H      0.004050000000     0.732230000000     0.642910000000     0.052427   
H278     H      0.976950000000     0.735140000000     0.828390000000     0.0358784  
H279     H      0.007880000000     0.679840000000     0.590760000000     0.0174578  
H280     H      0.946810000000     0.818920000000     0.955930000000     0.037275   
H281     H      0.997140000000     0.924310000000     0.183400000000     0.0151608  
H282     H      0.023250000000     0.593770000000     0.335160000000     0.00701592 
H283     H      0.949970000000     0.810710000000     0.255220000000     0.0351952  
H284     H      0.061610000000     0.705980000000     0.260330000000     0.0345684  
H285     H      0.024310000000     0.645250000000     0.281470000000     0.0540312  
H286     H      0.062880000000     0.759280000000     0.206990000000     0.0348208  
H287     H      0.981490000000     0.736360000000     0.368040000000     0.0569771  
H288     H      0.998270000000     0.872220000000     0.237200000000     0.0645079  
H289     H      0.015950000000     0.778000000000     0.144940000000     0.0558364  
H290     H      0.947620000000     0.756800000000     0.307510000000     0.0347769  
H291     H      0.014450000000     0.830400000000     0.091800000000     0.0161503  
H292     H      0.922470000000     0.682620000000     0.434050000000     0.0253556  
H293     H      0.010150000000     0.092090000000     0.179470000000     0.00852123 
H294     H      0.043380000000     0.421030000000     0.337190000000     0.00984063 
H295     H      0.963740000000     0.208700000000     0.244660000000     0.0354972  
H296     H      0.078220000000     0.309310000000     0.258320000000     0.0344604  
H297     H      0.047430000000     0.370530000000     0.282340000000     0.0530185  
H298     H      0.080880000000     0.256760000000     0.204140000000     0.0346349  
H299     H      0.984630000000     0.282510000000     0.359580000000     0.0551417  
H300     H      0.011670000000     0.145630000000     0.231510000000     0.0540943  
H301     H      0.038260000000     0.235770000000     0.137500000000     0.0544068  
H302     H      0.959670000000     0.262080000000     0.297150000000     0.0344802  
H303     H      0.036090000000     0.181370000000     0.085650000000     0.0130423  
H304     H      0.980010000000     0.312170000000     0.457720000000     0.0202607  
N1       N      0.520860000000     0.134330000000     0.384370000000    -0.269512   
N2       N      0.503000000000     0.380070000000     0.132660000000    -0.256265   
N3       N      0.508800000000     0.882160000000     0.376250000000    -0.255377   
N4       N      0.503040000000     0.630870000000     0.129550000000    -0.237272   
N5       N      0.498520000000     0.878640000000     0.626810000000    -0.229744   
N6       N      0.489310000000     0.632120000000     0.879320000000    -0.25517    
N7       N      0.507360000000     0.131540000000     0.633910000000    -0.248181   
N8       N      0.492710000000     0.379600000000     0.882730000000    -0.26861    
N9       N      0.877340000000     0.379590000000     0.498060000000    -0.255098   
N10      N      0.627330000000     0.131050000000     0.488180000000    -0.267818   
N11      N      0.878510000000     0.630440000000     0.514160000000    -0.236432   
N12      N      0.628910000000     0.878770000000     0.495500000000    -0.255011   
N13      N      0.127940000000     0.381190000000     0.485370000000    -0.264286   
N14      N      0.377830000000     0.132870000000     0.497070000000    -0.257218   
N15      N      0.129080000000     0.633510000000     0.496570000000    -0.254282   
N16      N      0.379860000000     0.881010000000     0.506680000000    -0.236761   
N17      N      0.873540000000     0.506320000000     0.382400000000    -0.251205   
N18      N      0.627100000000     0.515910000000     0.129770000000    -0.229415   
N19      N      0.127660000000     0.490810000000     0.380650000000    -0.265999   
N20      N      0.375910000000     0.495800000000     0.131010000000    -0.254568   
N21      N      0.131450000000     0.496110000000     0.632150000000    -0.24535    
N22      N      0.381080000000     0.481680000000     0.879880000000    -0.268187   
N23      N      0.881660000000     0.508210000000     0.633250000000    -0.231108   
N24      N      0.630080000000     0.503130000000     0.879470000000    -0.247941   
N25      N      0.621600000000     0.636920000000     0.008530000000    -0.227574   
N26      N      0.874810000000     0.884690000000     0.009150000000    -0.233387   
N27      N      0.881320000000     0.136130000000     0.014310000000    -0.254599   
N28      N      0.634620000000     0.385320000000     0.998500000000    -0.241744   
N29      N      0.125240000000     0.875790000000     0.021300000000    -0.255439   
N30      N      0.371860000000     0.627080000000     0.004020000000    -0.256614   
N31      N      0.384210000000     0.374410000000     0.993650000000    -0.265414   
N32      N      0.131480000000     0.128080000000     0.017660000000    -0.264457   
N33      N      0.880750000000     0.000700000000     0.880310000000    -0.232815   
N34      N      0.630040000000     0.010830000000     0.632520000000    -0.24576    
N35      N      0.130090000000     0.001580000000     0.878400000000    -0.246782   
N36      N      0.380390000000     0.999660000000     0.630340000000    -0.222642   
N37      N      0.127570000000     0.020660000000     0.131440000000    -0.267001   
N38      N      0.377460000000     0.015160000000     0.379090000000    -0.254844   
N39      N      0.876720000000     0.017990000000     0.132190000000    -0.254489   
N40      N      0.627630000000     0.025340000000     0.381000000000    -0.268202   
N41      N      0.014890000000     0.130180000000     0.879290000000    -0.25479    
N42      N      0.015080000000     0.378630000000     0.631120000000    -0.250478   
N43      N      0.997820000000     0.879040000000     0.884600000000    -0.2267     
N44      N      0.005770000000     0.628620000000     0.632660000000    -0.229851   
N45      N      0.001260000000     0.634650000000     0.382640000000    -0.260031   
N46      N      0.005440000000     0.881250000000     0.133610000000    -0.25785    
N47      N      0.011470000000     0.381670000000     0.379760000000    -0.268249   
N48      N      0.022420000000     0.132620000000     0.128470000000    -0.266818   
O1       O      0.017820000000     0.113490000000     0.059150000000    -1.0446     
O2       O      0.004520000000     0.897800000000     0.063900000000    -0.798547   
O3       O      0.946040000000     0.010670000000     0.112760000000    -1.03302    
O4       O      0.058340000000     0.015710000000     0.111970000000    -1.10118    
O5       O      0.110230000000     0.014320000000     0.061670000000    -1.04538    
O6       O      0.894270000000     0.014180000000     0.061970000000    -0.770035   
O7       O      0.002560000000     0.950690000000     0.114240000000    -1.02626    
O8       O      0.012740000000     0.063290000000     0.111310000000    -1.07819    
O9       O      0.046830000000     0.966060000000     0.051350000000    -2.07831    
O10      O      0.965000000000     0.052670000000     0.049280000000    -2.08866    
O11      O      0.957350000000     0.963670000000     0.053480000000    -0.863307   
O12      O      0.012780000000     0.014560000000     0.014240000000    -2.56124    
O13      O      0.995630000000     0.898520000000     0.953980000000    -0.704324   
O14      O      0.007840000000     0.112970000000     0.947870000000    -0.942844   
O15      O      0.894660000000     0.954260000000     0.006250000000    -0.723217   
O16      O      0.109250000000     0.945990000000     0.013740000000    -0.943997   
O17      O      0.112050000000     0.058610000000     0.014240000000    -1.03488    
O18      O      0.897100000000     0.065660000000     0.010780000000    -0.762498   
O19      O      0.950460000000     0.005050000000     0.899210000000    -0.594387   
O20      O      0.060440000000     0.004430000000     0.897240000000    -0.632082   
O21      O      0.898140000000     0.004540000000     0.950550000000    -0.69811    
O22      O      0.111640000000     0.003680000000     0.948670000000    -0.903298   
O23      O      0.945220000000     0.900720000000     0.009500000000    -0.73194    
O24      O      0.950250000000     0.115190000000     0.010000000000    -0.952682   
O25      O      0.061840000000     0.111230000000     0.013070000000    -1.04698    
O26      O      0.056310000000     0.896170000000     0.015150000000    -0.767146   
O27      O      0.004500000000     0.948800000000     0.900890000000    -0.584956   
O28      O      0.014070000000     0.060750000000     0.897030000000    -0.622382   
O29      O      0.049580000000     0.048200000000     0.966340000000    -1.97001    
O30      O      0.965270000000     0.968910000000     0.968390000000    -1.56776    
O31      O      0.960060000000     0.049390000000     0.960150000000    -1.22251    
O32      O      0.045660000000     0.958330000000     0.962750000000    -1.23891    
O33      O      0.008690000000     0.399220000000     0.449510000000    -1.05026    
O34      O      0.004230000000     0.615610000000     0.451980000000    -0.799195   
O35      O      0.943990000000     0.506710000000     0.400070000000    -0.974898   
O36      O      0.058060000000     0.497920000000     0.399390000000    -1.04554    
O37      O      0.109360000000     0.496260000000     0.450170000000    -1.07443    
O38      O      0.893370000000     0.504530000000     0.452160000000    -0.795482   
O39      O      0.002330000000     0.564570000000     0.399900000000    -0.998711   
O40      O      0.010520000000     0.451240000000     0.398900000000    -1.04994    
O41      O      0.047630000000     0.545940000000     0.461730000000    -2.06685    
O42      O      0.963200000000     0.461580000000     0.462110000000    -2.07263    
O43      O      0.958350000000     0.550850000000     0.461040000000    -0.866462   
O44      O      0.012300000000     0.497080000000     0.497570000000    -2.56528    
O45      O      0.003640000000     0.611350000000     0.562440000000    -0.71257    
O46      O      0.009900000000     0.397310000000     0.561740000000    -0.937786   
O47      O      0.896830000000     0.560470000000     0.510430000000    -0.747543   
O48      O      0.111120000000     0.563280000000     0.500620000000    -0.948912   
O49      O      0.109860000000     0.450550000000     0.494150000000    -1.0482     
O50      O      0.895310000000     0.449390000000     0.499170000000    -0.773528   
O51      O      0.951270000000     0.504750000000     0.613510000000    -0.587702   
O52      O      0.061580000000     0.500000000000     0.614180000000    -0.626094   
O53      O      0.898650000000     0.507320000000     0.562800000000    -0.723726   
O54      O      0.112260000000     0.500630000000     0.562230000000    -0.92473    
O55      O      0.948750000000     0.612420000000     0.510700000000    -0.733997   
O56      O      0.946620000000     0.397860000000     0.504180000000    -0.946289   
O57      O      0.058450000000     0.399520000000     0.493230000000    -1.06357    
O58      O      0.059370000000     0.614180000000     0.500010000000    -0.775385   
O59      O      0.006110000000     0.558820000000     0.613850000000    -0.585041   
O60      O      0.010540000000     0.448190000000     0.614010000000    -0.63282    
O61      O      0.048560000000     0.460950000000     0.544180000000    -1.99526    
O62      O      0.966740000000     0.542760000000     0.545620000000    -1.60713    
O63      O      0.959190000000     0.462080000000     0.551360000000    -1.25458    
O64      O      0.047580000000     0.550450000000     0.550930000000    -1.2626     
O65      O      0.610510000000     0.017030000000     0.450380000000    -1.02798    
O66      O      0.394480000000     0.010820000000     0.449090000000    -0.767091   
O67      O      0.504730000000     0.951590000000     0.397020000000    -1.02671    
O68      O      0.513490000000     0.064360000000     0.401010000000    -1.07605    
O69      O      0.514110000000     0.114050000000     0.453360000000    -1.1062     
O70      O      0.507280000000     0.898510000000     0.446610000000    -0.808603   
O71      O      0.446750000000     0.010630000000     0.398150000000    -1.01931    
O72      O      0.558750000000     0.018030000000     0.399520000000    -1.08142    
O73      O      0.464190000000     0.052050000000     0.462140000000    -2.12458    
O74      O      0.548630000000     0.967610000000     0.460180000000    -2.088      
O75      O      0.459130000000     0.962720000000     0.457660000000    -0.8675     
O76      O      0.512730000000     0.014990000000     0.497360000000    -2.58643    
O77      O      0.397810000000     0.002340000000     0.560180000000    -0.695386   
O78      O      0.611790000000     0.009500000000     0.562610000000    -0.919231   
O79      O      0.449440000000     0.899320000000     0.504490000000    -0.760571   
O80      O      0.447160000000     0.114220000000     0.502850000000    -0.979554   
O81      O      0.558800000000     0.112970000000     0.498730000000    -1.08473    
O82      O      0.559490000000     0.897690000000     0.496650000000    -0.791149   
O83      O      0.503220000000     0.949240000000     0.610650000000    -0.575006   
O84      O      0.507100000000     0.061310000000     0.615360000000    -0.61979    
O85      O      0.500680000000     0.899190000000     0.557240000000    -0.735702   
O86      O      0.507430000000     0.112700000000     0.564210000000    -0.990745   
O87      O      0.397100000000     0.951200000000     0.505400000000    -0.721455   
O88      O      0.611390000000     0.948770000000     0.500390000000    -0.929114   
O89      O      0.610050000000     0.061520000000     0.494380000000    -1.03821    
O90      O      0.395500000000     0.062850000000     0.499560000000    -0.752242   
O91      O      0.449860000000     0.003450000000     0.612160000000    -0.584385   
O92      O      0.560430000000     0.008680000000     0.614370000000    -0.621614   
O93      O      0.548270000000     0.049720000000     0.545690000000    -2.00297    
O94      O      0.466500000000     0.968150000000     0.542650000000    -1.58449    
O95      O      0.546960000000     0.960090000000     0.549190000000    -1.25435    
O96      O      0.458500000000     0.048360000000     0.551110000000    -1.22594    
O97      O      0.453120000000     0.396510000000     0.997310000000    -1.05522    
O98      O      0.442160000000     0.612460000000     0.002900000000    -0.790309   
O99      O      0.395420000000     0.500080000000     0.061870000000    -1.00837    
O100     O      0.397840000000     0.491130000000     0.949330000000    -1.05872    
O101     O      0.449570000000     0.492040000000     0.898460000000    -1.07556    
O102     O      0.446090000000     0.500340000000     0.114430000000    -0.781542   
O103     O      0.393270000000     0.558180000000     0.004010000000    -1.00628    
O104     O      0.399660000000     0.445030000000     0.997070000000    -1.05343    
O105     O      0.456960000000     0.543280000000     0.960250000000    -2.08135    
O106     O      0.460680000000     0.459320000000     0.045300000000    -2.09513    
O107     O      0.454140000000     0.548400000000     0.049730000000    -0.864372   
O108     O      0.495020000000     0.496870000000     0.996640000000    -2.56485    
O109     O      0.552360000000     0.614770000000     0.007470000000    -0.708001   
O110     O      0.564570000000     0.401080000000     0.000790000000    -0.953408   
O111     O      0.501560000000     0.560940000000     0.112100000000    -0.74979    
O112     O      0.496270000000     0.562510000000     0.897550000000    -0.961153   
O113     O      0.496030000000     0.449600000000     0.899430000000    -1.06026    
O114     O      0.499540000000     0.449870000000     0.114360000000    -0.774281   
O115     O      0.609430000000     0.512000000000     0.060060000000    -0.582748   
O116     O      0.612110000000     0.506480000000     0.949160000000    -0.615697   
O117     O      0.557180000000     0.511470000000     0.111830000000    -0.70894    
O118     O      0.560440000000     0.503540000000     0.897840000000    -0.953054   
O119     O      0.500100000000     0.612840000000     0.059780000000    -0.732252   
O120     O      0.504730000000     0.398380000000     0.063010000000    -0.96105    
O121     O      0.497990000000     0.398850000000     0.951480000000    -1.07351    
O122     O      0.491500000000     0.613930000000     0.949050000000    -0.759411   
O123     O      0.606930000000     0.565920000000     0.005970000000    -0.578726   
O124     O      0.614280000000     0.454440000000     0.002080000000    -0.621351   
O125     O      0.544470000000     0.463530000000     0.961670000000    -2.00503    
O126     O      0.539160000000     0.545230000000     0.042940000000    -1.58781    
O127     O      0.549680000000     0.465280000000     0.051040000000    -1.24251    
O128     O      0.545810000000     0.553120000000     0.962220000000    -1.22905    
S1       S      0.518810000000     0.197170000000     0.443990000000    -0.00597653 
S2       S      0.524500000000     0.942120000000     0.315970000000    -0.0193899  
S3       S      0.511260000000     0.816680000000     0.567730000000    -0.0161953  
S4       S      0.492440000000     0.193950000000     0.575490000000    -0.0133829  
S5       S      0.920380000000     0.331300000000     0.554040000000    -0.00415429 
S6       S      0.933420000000     0.689760000000     0.543330000000    -0.0119585  
S7       S      0.070140000000     0.321250000000     0.462980000000    -0.00674535 
S8       S      0.070780000000     0.695010000000     0.479600000000    -0.0126351  
S9       S      0.810340000000     0.500600000000     0.441270000000    -0.0160382  
S10      S      0.191840000000     0.497530000000     0.438470000000    -0.0109541  
S11      S      0.076970000000     0.520620000000     0.694430000000    -0.0229893  
S12      S      0.941020000000     0.517070000000     0.695590000000    -0.0178601  
S13      S      0.562800000000     0.695730000000     0.985510000000     0.000349895
S14      S      0.940100000000     0.192810000000     0.042060000000    -0.0127072  
S15      S      0.185080000000     0.931790000000     0.048120000000    -0.0167073  
S16      S      0.444840000000     0.312900000000     0.998670000000    -0.00130223 
S17      S      0.938190000000     0.974270000000     0.821650000000    -0.00819325 
S18      S      0.072350000000     0.980830000000     0.817340000000    -0.0151868  
S19      S      0.071340000000     0.998100000000     0.193070000000    -0.00182068 
S20      S      0.936530000000     0.029860000000     0.193590000000    -0.0241896  
S21      S      0.090940000000     0.100500000000     0.856170000000    -0.0247789  
S22      S      0.932040000000     0.842090000000     0.923830000000    -0.0132195  
S23      S      0.964020000000     0.689490000000     0.437370000000    -0.0135983  
S24      S      0.959850000000     0.331130000000     0.425870000000    -0.00457593 
Tb1      Tb     0.002480000000     0.006700000000     0.075690000000     6.46622    
Tb2      Tb     0.002710000000     0.936910000000     0.009930000000     4.31354    
Tb3      Tb     0.005060000000     0.076030000000     0.004330000000     6.23008    
Tb4      Tb     0.934440000000     0.009400000000     0.008060000000     4.21754    
Tb5      Tb     0.073910000000     0.003250000000     0.005850000000     6.15318    
Tb6      Tb     0.006570000000     0.006540000000     0.936880000000     3.15409    
Tb7      Tb     0.001890000000     0.507180000000     0.436420000000     6.18845    
Tb8      Tb     0.004970000000     0.574780000000     0.504870000000     4.34454    
Tb9      Tb     0.002910000000     0.435540000000     0.506060000000     6.24534    
Tb10     Tb     0.934530000000     0.504330000000     0.505020000000     4.40659    
Tb11     Tb     0.073810000000     0.506460000000     0.505960000000     6.30409    
Tb12     Tb     0.006960000000     0.502860000000     0.575390000000     3.14606    
Tb13     Tb     0.503110000000     0.007240000000     0.435780000000     6.4085     
Tb14     Tb     0.434610000000     0.007720000000     0.502990000000     4.18205    
Tb15     Tb     0.574120000000     0.005530000000     0.505990000000     6.12322    
Tb16     Tb     0.505220000000     0.937390000000     0.501340000000     4.49405    
Tb17     Tb     0.503150000000     0.076200000000     0.507660000000     6.59702    
Tb18     Tb     0.506020000000     0.007010000000     0.574820000000     3.09641    
Tb19     Tb     0.433270000000     0.503230000000     0.005740000000     6.27228    
Tb20     Tb     0.497400000000     0.574760000000     0.003770000000     4.27276    
Tb21     Tb     0.506910000000     0.436050000000     0.006600000000     6.34954    
Tb22     Tb     0.500370000000     0.504640000000     0.074690000000     4.34495    
Tb23     Tb     0.503890000000     0.506350000000     0.935280000000     6.41089    
Tb24     Tb     0.572440000000     0.507270000000     0.003600000000     3.09581    


