data_structure

_audit_creation_method RASPA-1.0
_audit_creation_date 2023-5-19
_audit_author_name 'Poobodin Mano'

_cell_length_a    32.3428
_cell_length_b    32.4462
_cell_length_c    32.427
_cell_angle_alpha 90
_cell_angle_beta  90
_cell_angle_gamma 90
_cell_volume      34028.9

_symmetry_cell_setting          triclinic
_symmetry_space_group_name_Hall 'P 1'
_symmetry_space_group_name_H-M  'P 1'
_symmetry_Int_Tables_number     1

_symmetry_equiv_pos_as_xyz 'x,y,z'

loop_
_atom_site_label
_atom_site_type_symbol
_atom_site_fract_x
_atom_site_fract_y
_atom_site_fract_z
_atom_site_charge
C1       C      0.020570000000     0.099990000000     0.099710000000     0.715655   
C2       C      0.003080000000     0.908350000000     0.102880000000     0.675732   
C3       C      0.907290000000     0.012900000000     0.101700000000     0.67287    
C4       C      0.099710000000     0.015050000000     0.100860000000     0.732811   
C5       C      0.998960000000     0.908020000000     0.913450000000     0.570872   
C6       C      0.014340000000     0.098810000000     0.908380000000     0.65101    
C7       C      0.906180000000     0.912860000000     0.005860000000     0.581669   
C8       C      0.097440000000     0.904980000000     0.015640000000     0.691446   
C9       C      0.103600000000     0.095810000000     0.015450000000     0.715684   
C10      C      0.911110000000     0.103280000000     0.010610000000     0.687284   
C11      C      0.910470000000     0.001980000000     0.911730000000     0.56611    
C12      C      0.100990000000     0.004760000000     0.909320000000     0.648025   
C13      C      0.020760000000     0.411930000000     0.408650000000     0.715301   
C14      C      0.005130000000     0.604000000000     0.413390000000     0.676552   
C15      C      0.909380000000     0.503760000000     0.408250000000     0.672068   
C16      C      0.103270000000     0.498870000000     0.414620000000     0.737764   
C17      C      0.998000000000     0.596620000000     0.602900000000     0.568472   
C18      C      0.010960000000     0.405430000000     0.600090000000     0.645587   
C19      C      0.908330000000     0.596700000000     0.508250000000     0.590298   
C20      C      0.100210000000     0.601770000000     0.504710000000     0.67852    
C21      C      0.102430000000     0.412090000000     0.492910000000     0.718334   
C22      C      0.910420000000     0.406360000000     0.491630000000     0.680204   
C23      C      0.908500000000     0.500350000000     0.598450000000     0.579439   
C24      C      0.098440000000     0.496110000000     0.606280000000     0.64813    
C25      C      0.602920000000     0.015240000000     0.415130000000     0.730421   
C26      C      0.410210000000     0.007780000000     0.407750000000     0.676403   
C27      C      0.509420000000     0.906590000000     0.410810000000     0.677292   
C28      C      0.518560000000     0.098030000000     0.410850000000     0.735958   
C29      C      0.407100000000     0.003790000000     0.597460000000     0.576368   
C30      C      0.597880000000     0.005380000000     0.606620000000     0.641835   
C31      C      0.408970000000     0.910080000000     0.506880000000     0.590537   
C32      C      0.408760000000     0.100460000000     0.494990000000     0.688095   
C33      C      0.601270000000     0.097840000000     0.496010000000     0.710151   
C34      C      0.600120000000     0.906550000000     0.502410000000     0.68879    
C35      C      0.496850000000     0.910360000000     0.601190000000     0.568903   
C36      C      0.506930000000     0.101380000000     0.602860000000     0.640335   
C37      C      0.413110000000     0.406220000000     0.995620000000     0.720194   
C38      C      0.405660000000     0.597420000000     0.005840000000     0.677418   
C39      C      0.411280000000     0.497410000000     0.104410000000     0.678633   
C40      C      0.409930000000     0.488280000000     0.912510000000     0.733619   
C41      C      0.597020000000     0.601230000000     0.007010000000     0.562747   
C42      C      0.605600000000     0.411830000000     0.998530000000     0.6464     
C43      C      0.506710000000     0.597880000000     0.101200000000     0.593028   
C44      C      0.493220000000     0.600600000000     0.909830000000     0.689181   
C45      C      0.492990000000     0.410100000000     0.910480000000     0.716513   
C46      C      0.504340000000     0.407840000000     0.102470000000     0.682306   
C47      C      0.601720000000     0.509910000000     0.097520000000     0.577029   
C48      C      0.600960000000     0.502310000000     0.908100000000     0.655067   
C49      C      0.519050000000     0.149390000000     0.308610000000    -0.115858   
C50      C      0.505610000000     0.389260000000     0.173590000000     0.10547    
C51      C      0.505790000000     0.337100000000     0.122410000000     0.110057   
C52      C      0.507870000000     0.359600000000     0.204730000000    -0.114883   
C53      C      0.538600000000     0.290530000000     0.260990000000    -0.0346211  
C54      C      0.541520000000     0.259940000000     0.291290000000    -0.0343071  
C55      C      0.511710000000     0.285700000000     0.227230000000    -0.0123017  
C56      C      0.507750000000     0.306630000000     0.152810000000    -0.118547   
C57      C      0.517500000000     0.223910000000     0.288560000000    -0.0126822  
C58      C      0.524430000000     0.200040000000     0.362140000000    -0.11879    
C59      C      0.490170000000     0.219500000000     0.255070000000    -0.0345239  
C60      C      0.524770000000     0.168370000000     0.391360000000     0.107506   
C61      C      0.519000000000     0.118100000000     0.338370000000     0.106025   
C62      C      0.487440000000     0.249910000000     0.224730000000    -0.0346504  
C63      C      0.514230000000     0.076640000000     0.322470000000     0.051501   
C64      C      0.509090000000     0.317710000000     0.194540000000     0.0634416  
C65      C      0.520800000000     0.190790000000     0.320220000000     0.0633572  
C66      C      0.510190000000     0.649270000000     0.203390000000    -0.108515   
C67      C      0.511250000000     0.888190000000     0.339710000000     0.111554   
C68      C      0.511200000000     0.835900000000     0.390760000000     0.103123   
C69      C      0.511710000000     0.858590000000     0.308480000000    -0.118517   
C70      C      0.535240000000     0.789120000000     0.249950000000    -0.0338707  
C71      C      0.534650000000     0.758870000000     0.219210000000    -0.0350079  
C72      C      0.510980000000     0.784740000000     0.285690000000    -0.0125401  
C73      C      0.511580000000     0.805490000000     0.360270000000    -0.115352   
C74      C      0.509810000000     0.723600000000     0.223570000000    -0.0105112  
C75      C      0.509700000000     0.700090000000     0.149730000000    -0.109708   
C76      C      0.485190000000     0.719530000000     0.259090000000    -0.0353486  
C77      C      0.508900000000     0.668480000000     0.120500000000     0.0943961  
C78      C      0.509360000000     0.618010000000     0.173640000000     0.0986041  
C79      C      0.485800000000     0.749690000000     0.289780000000    -0.0339286  
C80      C      0.509090000000     0.576330000000     0.189700000000     0.051525   
C81      C      0.511620000000     0.816660000000     0.318540000000     0.0637463  
C82      C      0.509990000000     0.690660000000     0.191730000000     0.0590864  
C83      C      0.486860000000     0.857060000000     0.702140000000    -0.104988   
C84      C      0.489760000000     0.618580000000     0.838720000000     0.115179   
C85      C      0.486820000000     0.671080000000     0.889450000000     0.104164   
C86      C      0.487840000000     0.647880000000     0.807290000000    -0.120078   
C87      C      0.510400000000     0.717290000000     0.748750000000    -0.0332994  
C88      C      0.510500000000     0.747420000000     0.717890000000    -0.0350789  
C89      C      0.484910000000     0.721410000000     0.783680000000    -0.0124032  
C90      C      0.484760000000     0.701260000000     0.858670000000    -0.113725   
C91      C      0.485120000000     0.782420000000     0.721240000000    -0.00927156 
C92      C      0.490160000000     0.807220000000     0.647780000000    -0.108248   
C93      C      0.459040000000     0.786120000000     0.755790000000    -0.0349731  
C94      C      0.492910000000     0.839370000000     0.619170000000     0.096613   
C95      C      0.489630000000     0.888820000000     0.673000000000     0.0977464  
C96      C      0.459010000000     0.756050000000     0.786660000000    -0.0330333  
C97      C      0.488260000000     0.930000000000     0.689810000000     0.0516815  
C98      C      0.485650000000     0.689840000000     0.816970000000     0.0645659  
C99      C      0.487150000000     0.815870000000     0.689860000000     0.0590114  
C100     C      0.502160000000     0.156100000000     0.703160000000    -0.109182   
C101     C      0.484270000000     0.392960000000     0.839610000000     0.114451   
C102     C      0.488270000000     0.339730000000     0.889490000000     0.110107   
C103     C      0.482400000000     0.364030000000     0.807860000000    -0.122827   
C104     C      0.508920000000     0.297790000000     0.747510000000    -0.0334254  
C105     C      0.511610000000     0.267730000000     0.716730000000    -0.0350093  
C106     C      0.485230000000     0.290850000000     0.783260000000    -0.0135927  
C107     C      0.486490000000     0.309910000000     0.858410000000    -0.120115   
C108     C      0.490780000000     0.230000000000     0.721080000000    -0.0110896  
C109     C      0.496180000000     0.204720000000     0.647890000000    -0.116071   
C110     C      0.466220000000     0.223510000000     0.756300000000    -0.0349785  
C111     C      0.500860000000     0.172420000000     0.619720000000     0.107912   
C112     C      0.507030000000     0.124260000000     0.674460000000     0.100963   
C113     C      0.463510000000     0.253550000000     0.787040000000    -0.0334182  
C114     C      0.515150000000     0.084180000000     0.691920000000     0.0470617  
C115     C      0.484240000000     0.321930000000     0.816940000000     0.0659276  
C116     C      0.496150000000     0.196610000000     0.690170000000     0.0621976  
C117     C      0.702820000000     0.150910000000     0.493360000000    -0.113795   
C118     C      0.841650000000     0.387070000000     0.473800000000     0.109757   
C119     C      0.890330000000     0.335510000000     0.491390000000     0.11102    
C120     C      0.810580000000     0.357470000000     0.469610000000    -0.110842   
C121     C      0.745880000000     0.293180000000     0.490320000000    -0.0342635  
C122     C      0.714930000000     0.263040000000     0.490390000000    -0.033599   
C123     C      0.785740000000     0.284260000000     0.475280000000    -0.0105683  
C124     C      0.859910000000     0.305020000000     0.487600000000    -0.115302   
C125     C      0.723070000000     0.223150000000     0.475590000000    -0.0119854  
C126     C      0.649640000000     0.197330000000     0.471220000000    -0.11707    
C127     C      0.762580000000     0.214500000000     0.459610000000    -0.0342203  
C128     C      0.620460000000     0.166010000000     0.477070000000     0.104555   
C129     C      0.673010000000     0.120170000000     0.499560000000     0.107577   
C130     C      0.793510000000     0.244660000000     0.459440000000    -0.0342842  
C131     C      0.687740000000     0.083170000000     0.519500000000     0.054434   
C132     C      0.819220000000     0.315870000000     0.477170000000     0.0632965  
C133     C      0.691430000000     0.189950000000     0.479310000000     0.0628089  
C134     C      0.806690000000     0.649080000000     0.513090000000    -0.107579   
C135     C      0.671070000000     0.887330000000     0.500480000000     0.113881   
C136     C      0.619380000000     0.835610000000     0.500290000000     0.106073   
C137     C      0.702040000000     0.857510000000     0.499380000000    -0.117138   
C138     C      0.761470000000     0.789620000000     0.521560000000    -0.0326152  
C139     C      0.792190000000     0.759400000000     0.521980000000    -0.0348656  
C140     C      0.724470000000     0.783470000000     0.499500000000    -0.0121951  
C141     C      0.649640000000     0.804880000000     0.499740000000    -0.114992   
C142     C      0.786380000000     0.722120000000     0.500850000000    -0.00964603 
C143     C      0.859630000000     0.697920000000     0.495930000000    -0.108136   
C144     C      0.749590000000     0.715850000000     0.478740000000    -0.0353698  
C145     C      0.888860000000     0.666400000000     0.498230000000     0.0984566  
C146     C      0.836670000000     0.618090000000     0.516100000000     0.101039   
C147     C      0.719070000000     0.746280000000     0.477840000000    -0.0329876  
C148     C      0.822130000000     0.578790000000     0.531070000000     0.0560387  
C149     C      0.691650000000     0.815620000000     0.499360000000     0.0645958  
C150     C      0.818020000000     0.689280000000     0.502990000000     0.0601456  
C151     C      0.204870000000     0.360860000000     0.489100000000    -0.114778   
C152     C      0.338200000000     0.119750000000     0.485870000000     0.105734   
C153     C      0.389740000000     0.171320000000     0.492270000000     0.113139   
C154     C      0.307450000000     0.149850000000     0.482890000000    -0.114524   
C155     C      0.252760000000     0.222260000000     0.456180000000    -0.0343969  
C156     C      0.222630000000     0.253240000000     0.455500000000    -0.0344357  
C157     C      0.285710000000     0.224080000000     0.484410000000    -0.0122862  
C158     C      0.359770000000     0.202150000000     0.489640000000    -0.119287   
C159     C      0.224790000000     0.286570000000     0.483160000000    -0.0122612  
C160     C      0.151280000000     0.311150000000     0.477480000000    -0.11832    
C161     C      0.257490000000     0.287920000000     0.511740000000    -0.0342509  
C162     C      0.122040000000     0.342710000000     0.480170000000     0.106579   
C163     C      0.175040000000     0.391990000000     0.492150000000     0.106493   
C164     C      0.287610000000     0.257170000000     0.512250000000    -0.0340041  
C165     C      0.190780000000     0.432500000000     0.502260000000     0.0575672  
C166     C      0.318030000000     0.191600000000     0.485270000000     0.0643661  
C167     C      0.193220000000     0.319920000000     0.482670000000     0.0634377  
C168     C      0.163940000000     0.689740000000     0.472990000000    -0.109767   
C169     C      0.388900000000     0.839380000000     0.504220000000     0.0985084  
C170     C      0.337960000000     0.891000000000     0.513850000000     0.0976004  
C171     C      0.358510000000     0.808760000000     0.504380000000    -0.111159   
C172     C      0.255690000000     0.784220000000     0.541810000000    -0.0344739  
C173     C      0.225320000000     0.753440000000     0.541420000000    -0.0335217  
C174     C      0.284380000000     0.787280000000     0.509400000000    -0.0104999  
C175     C      0.306870000000     0.861020000000     0.515110000000    -0.108671   
C176     C      0.222530000000     0.725840000000     0.508150000000    -0.0113258  
C177     C      0.186030000000     0.665450000000     0.539620000000    -0.114843   
C178     C      0.250960000000     0.729180000000     0.475570000000    -0.0336809  
C179     C      0.156310000000     0.634240000000     0.537360000000     0.117132   
C180     C      0.133900000000     0.658590000000     0.471900000000     0.113872   
C181     C      0.281850000000     0.759340000000     0.476400000000    -0.0344907  
C182     C      0.113220000000     0.651370000000     0.433050000000     0.0408163  
C183     C      0.316990000000     0.819430000000     0.509880000000     0.0598579  
C184     C      0.190010000000     0.693620000000     0.507220000000     0.0654972  
C185     C      0.808970000000     0.507070000000     0.353090000000    -0.111701   
C186     C      0.673250000000     0.514010000000     0.114630000000     0.0951567  
C187     C      0.623070000000     0.513000000000     0.167880000000     0.0990994  
C188     C      0.705090000000     0.515370000000     0.143640000000    -0.108348   
C189     C      0.765070000000     0.491530000000     0.211780000000    -0.0348222  
C190     C      0.795780000000     0.490560000000     0.242140000000    -0.0340694  
C191     C      0.729350000000     0.515720000000     0.217110000000    -0.0100837  
C192     C      0.654180000000     0.514410000000     0.197730000000    -0.108565   
C193     C      0.791350000000     0.513680000000     0.278500000000    -0.0117458  
C194     C      0.864610000000     0.510240000000     0.304350000000    -0.115294   
C195     C      0.756150000000     0.538690000000     0.283290000000    -0.0340824  
C196     C      0.892740000000     0.507610000000     0.336970000000     0.106095   
C197     C      0.837600000000     0.504350000000     0.385310000000     0.102957   
C198     C      0.725510000000     0.539670000000     0.252990000000    -0.0348577  
C199     C      0.819890000000     0.501000000000     0.426150000000     0.0525665  
C200     C      0.695820000000     0.515350000000     0.185780000000     0.0590675  
C201     C      0.822190000000     0.510420000000     0.312290000000     0.0625718  
C202     C      0.205110000000     0.506560000000     0.363540000000    -0.114801   
C203     C      0.340680000000     0.490450000000     0.124240000000     0.110915   
C204     C      0.392530000000     0.497770000000     0.175450000000     0.1037     
C205     C      0.310070000000     0.488530000000     0.154540000000    -0.118736   
C206     C      0.258070000000     0.461410000000     0.229510000000    -0.0345486  
C207     C      0.227920000000     0.461480000000     0.260440000000    -0.0341643  
C208     C      0.288750000000     0.492030000000     0.228600000000    -0.0123248  
C209     C      0.362630000000     0.496660000000     0.206470000000    -0.114896   
C210     C      0.227510000000     0.492540000000     0.290770000000    -0.0118364  
C211     C      0.154590000000     0.481490000000     0.315450000000    -0.11675    
C212     C      0.258020000000     0.523470000000     0.289270000000    -0.0338187  
C213     C      0.124690000000     0.483740000000     0.346410000000     0.108219   
C214     C      0.174390000000     0.509500000000     0.393820000000     0.112701   
C215     C      0.288450000000     0.522990000000     0.258770000000    -0.0341694  
C216     C      0.186080000000     0.530550000000     0.431460000000     0.0561195  
C217     C      0.320900000000     0.492070000000     0.196130000000     0.0637969  
C218     C      0.195420000000     0.493000000000     0.323740000000     0.064113   
C219     C      0.149290000000     0.487390000000     0.708560000000    -0.109014   
C220     C      0.390630000000     0.479900000000     0.842150000000     0.115063   
C221     C      0.338940000000     0.480560000000     0.893960000000     0.112759   
C222     C      0.360530000000     0.477320000000     0.811460000000    -0.122723   
C223     C      0.291320000000     0.502520000000     0.754200000000    -0.0331908  
C224     C      0.260580000000     0.504230000000     0.724010000000    -0.0350057  
C225     C      0.286210000000     0.477880000000     0.789530000000    -0.0135005  
C226     C      0.307980000000     0.478070000000     0.863970000000    -0.119942   
C227     C      0.223930000000     0.481410000000     0.728400000000    -0.0107399  
C228     C      0.200230000000     0.485280000000     0.654870000000    -0.114519   
C229     C      0.218910000000     0.456490000000     0.763550000000    -0.0351048  
C230     C      0.168780000000     0.489200000000     0.625710000000     0.107657   
C231     C      0.118110000000     0.491410000000     0.678760000000     0.100176   
C232     C      0.249700000000     0.454760000000     0.793790000000    -0.033387   
C233     C      0.076410000000     0.495320000000     0.694570000000     0.0458313  
C234     C      0.318590000000     0.477220000000     0.822070000000     0.0662448  
C235     C      0.190730000000     0.484390000000     0.696840000000     0.0614783  
C236     C      0.808190000000     0.486490000000     0.650830000000    -0.106443   
C237     C      0.671500000000     0.506850000000     0.888070000000     0.101433   
C238     C      0.619760000000     0.496620000000     0.837310000000     0.112114   
C239     C      0.702100000000     0.507340000000     0.857840000000    -0.112541   
C240     C      0.763200000000     0.485310000000     0.791510000000    -0.0326959  
C241     C      0.793790000000     0.485990000000     0.761170000000    -0.035124   
C242     C      0.723880000000     0.502260000000     0.783800000000    -0.0122293  
C243     C      0.649700000000     0.496340000000     0.806290000000    -0.117996   
C244     C      0.785520000000     0.503030000000     0.722300000000    -0.00921171 
C245     C      0.857480000000     0.516070000000     0.697730000000    -0.107099   
C246     C      0.746330000000     0.519770000000     0.714330000000    -0.0354209  
C247     C      0.887220000000     0.514650000000     0.666670000000     0.0968089  
C248     C      0.838840000000     0.484460000000     0.620450000000     0.107269   
C249     C      0.715900000000     0.519670000000     0.744860000000    -0.032643   
C250     C      0.828540000000     0.461520000000     0.583640000000     0.0566606  
C251     C      0.691490000000     0.501940000000     0.816330000000     0.063893   
C252     C      0.817410000000     0.502360000000     0.689740000000     0.0609164  
C253     C      0.803230000000     0.862100000000     0.009490000000    -0.105563   
C254     C      0.667780000000     0.621710000000     0.005400000000     0.0936651  
C255     C      0.615460000000     0.672520000000     0.010640000000     0.0957266  
C256     C      0.698350000000     0.652070000000     0.005000000000    -0.109118   
C257     C      0.758110000000     0.720580000000     0.026440000000    -0.032639   
C258     C      0.788810000000     0.750920000000     0.024990000000    -0.0358899  
C259     C      0.719920000000     0.726450000000     0.006430000000    -0.0208677  
C260     C      0.645360000000     0.703760000000     0.010460000000    -0.110097   
C261     C      0.782070000000     0.788040000000     0.003700000000    -0.0171302  
C262     C      0.855990000000     0.811530000000     0.998020000000    -0.0977411  
C263     C      0.743950000000     0.793970000000     0.983670000000    -0.0262065  
C264     C      0.885650000000     0.842860000000     0.998810000000     0.101925   
C265     C      0.833530000000     0.893030000000     0.010620000000     0.0956103  
C266     C      0.713300000000     0.763550000000     0.984960000000    -0.0232721  
C267     C      0.818690000000     0.933870000000     0.020580000000     0.0498775  
C268     C      0.687470000000     0.693770000000     0.007430000000     0.0600649  
C269     C      0.814200000000     0.820940000000     0.003360000000     0.049096   
C270     C      0.811800000000     0.159520000000     0.008870000000    -0.111579   
C271     C      0.677310000000     0.395850000000     0.999390000000     0.117553   
C272     C      0.627730000000     0.341970000000     0.998010000000     0.128193   
C273     C      0.709350000000     0.367330000000     0.002280000000    -0.133327   
C274     C      0.771180000000     0.298730000000     0.986970000000    -0.0214907  
C275     C      0.801840000000     0.268670000000     0.990390000000    -0.0251139  
C276     C      0.733700000000     0.294490000000     0.008510000000    -0.0271666  
C277     C      0.659030000000     0.312630000000     0.000730000000    -0.137989   
C278     C      0.795380000000     0.233840000000     0.015230000000    -0.0213305  
C279     C      0.867690000000     0.207050000000     0.019570000000    -0.119471   
C280     C      0.758510000000     0.230260000000     0.037760000000    -0.0346308  
C281     C      0.895360000000     0.174160000000     0.018000000000     0.111606   
C282     C      0.840080000000     0.127100000000     0.006700000000     0.0956595  
C283     C      0.728000000000     0.260340000000     0.034520000000    -0.0307242  
C284     C      0.822860000000     0.087440000000     0.995740000000     0.0641211  
C285     C      0.700320000000     0.325220000000     0.003600000000     0.076182   
C286     C      0.825470000000     0.199730000000     0.015210000000     0.0656021  
C287     C      0.301790000000     0.645250000000     0.009620000000    -0.116454   
C288     C      0.167800000000     0.884320000000     0.019030000000     0.116015   
C289     C      0.114760000000     0.833810000000     0.019960000000     0.10619    
C290     C      0.197970000000     0.853750000000     0.019900000000    -0.122498   
C291     C      0.254070000000     0.782700000000     0.042880000000    -0.0325843  
C292     C      0.284740000000     0.752610000000     0.040270000000    -0.0334429  
C293     C      0.218060000000     0.779580000000     0.018850000000    -0.0235683  
C294     C      0.144180000000     0.802410000000     0.020710000000    -0.119769   
C295     C      0.279970000000     0.718850000000     0.013580000000    -0.0222275  
C296     C      0.354110000000     0.697730000000     0.009380000000    -0.116521   
C297     C      0.243850000000     0.715640000000     0.989710000000    -0.024623   
C298     C      0.384230000000     0.667170000000     0.007190000000     0.0996942  
C299     C      0.332510000000     0.615010000000     0.007370000000     0.104958   
C300     C      0.213170000000     0.745700000000     0.992360000000    -0.0234086  
C301     C      0.317860000000     0.572830000000     0.005680000000     0.046251   
C302     C      0.186300000000     0.812280000000     0.020270000000     0.0682062  
C303     C      0.312430000000     0.686890000000     0.010820000000     0.0647042  
C304     C      0.206930000000     0.145850000000     0.012010000000    -0.115082   
C305     C      0.342200000000     0.386110000000     0.993950000000     0.115698   
C306     C      0.394440000000     0.334990000000     0.992410000000     0.112691   
C307     C      0.311520000000     0.355820000000     0.995600000000    -0.125421   
C308     C      0.251430000000     0.285430000000     0.980850000000    -0.0196083  
C309     C      0.220810000000     0.255290000000     0.985660000000    -0.0277252  
C310     C      0.290000000000     0.281440000000     0.000600000000    -0.0367322  
C311     C      0.364480000000     0.303860000000     0.993980000000    -0.124074   
C312     C      0.227970000000     0.220270000000     0.010190000000    -0.020175   
C313     C      0.154110000000     0.197210000000     0.018660000000    -0.117951   
C314     C      0.266470000000     0.216290000000     0.029990000000    -0.0371217  
C315     C      0.124410000000     0.165920000000     0.020260000000     0.105874   
C316     C      0.176620000000     0.114900000000     0.013310000000     0.103862   
C317     C      0.297030000000     0.246470000000     0.025310000000    -0.0286135  
C318     C      0.191720000000     0.073130000000     0.008610000000     0.0512993  
C319     C      0.322370000000     0.314020000000     0.996330000000     0.0802446  
C320     C      0.195920000000     0.187430000000     0.014060000000     0.0627918  
C321     C      0.856360000000     0.998290000000     0.810930000000    -0.0905842  
C322     C      0.615360000000     0.001760000000     0.677980000000     0.0853092  
C323     C      0.668270000000     0.000690000000     0.627550000000     0.0984432  
C324     C      0.644700000000     0.999380000000     0.709490000000    -0.0916795  
C325     C      0.714790000000     0.019210000000     0.768790000000    -0.0422568  
C326     C      0.745750000000     0.018490000000     0.798830000000    -0.0424398  
C327     C      0.718680000000     0.995550000000     0.732670000000     0.00129643 
C328     C      0.698420000000     0.998380000000     0.658190000000    -0.0983631  
C329     C      0.781290000000     0.994210000000     0.793300000000     0.00120914 
C330     C      0.807100000000     0.993990000000     0.866070000000    -0.101021   
C331     C      0.784770000000     0.969880000000     0.757640000000    -0.0354988  
C332     C      0.839540000000     0.995820000000     0.894300000000     0.0978447  
C333     C      0.888510000000     0.000360000000     0.839800000000     0.0813652  
C334     C      0.753780000000     0.970470000000     0.727700000000    -0.0350641  
C335     C      0.929750000000     0.004090000000     0.822760000000     0.0513569  
C336     C      0.686840000000     0.997800000000     0.699770000000     0.0532649  
C337     C      0.815310000000     0.995310000000     0.823900000000     0.0535183  
C338     C      0.304170000000     0.003090000000     0.648030000000    -0.108705   
C339     C      0.172040000000     0.004750000000     0.889940000000     0.11099    
C340     C      0.119960000000     0.006140000000     0.838470000000     0.0999736  
C341     C      0.202780000000     0.004600000000     0.859730000000    -0.117104   
C342     C      0.259500000000     0.028560000000     0.788770000000    -0.032479   
C343     C      0.289390000000     0.028140000000     0.757710000000    -0.0336867  
C344     C      0.223840000000     0.004090000000     0.785360000000    -0.0201725  
C345     C      0.149850000000     0.005880000000     0.807530000000    -0.113872   
C346     C      0.284260000000     0.003170000000     0.722650000000    -0.018012   
C347     C      0.357810000000     0.003140000000     0.699110000000    -0.107049   
C348     C      0.248700000000     0.978510000000     0.719390000000    -0.0264908  
C349     C      0.387120000000     0.003470000000     0.667710000000     0.0922616  
C350     C      0.334190000000     0.003430000000     0.616850000000     0.0991537  
C351     C      0.218800000000     0.978990000000     0.750400000000    -0.0251779  
C352     C      0.318600000000     0.004950000000     0.575010000000     0.0497389  
C353     C      0.191800000000     0.004920000000     0.817980000000     0.0650217  
C354     C      0.315830000000     0.002970000000     0.689500000000     0.060546   
C355     C      0.153330000000     0.021100000000     0.201840000000    -0.113445   
C356     C      0.393340000000     0.011720000000     0.336270000000     0.110039   
C357     C      0.339970000000     0.012930000000     0.386350000000     0.104125   
C358     C      0.364290000000     0.015490000000     0.304600000000    -0.121081   
C359     C      0.294490000000     0.999140000000     0.244020000000    -0.00347191 
C360     C      0.263790000000     0.001060000000     0.213760000000    -0.0643943  
C361     C      0.290540000000     0.021700000000     0.280840000000    -0.0308857  
C362     C      0.310150000000     0.016580000000     0.355480000000    -0.118004   
C363     C      0.228370000000     0.025430000000     0.219720000000    -0.000152407
C364     C      0.202610000000     0.026780000000     0.146870000000    -0.116316   
C365     C      0.224830000000     0.048710000000     0.256080000000    -0.0441763  
C366     C      0.170300000000     0.024110000000     0.118520000000     0.105806   
C367     C      0.121340000000     0.018050000000     0.172850000000     0.104755   
C368     C      0.255600000000     0.046950000000     0.286240000000    -0.0246137  
C369     C      0.080400000000     0.011390000000     0.189690000000     0.0505032  
C370     C      0.322090000000     0.018060000000     0.313990000000     0.0685564  
C371     C      0.194350000000     0.025010000000     0.189030000000     0.0575092  
C372     C      0.705000000000     0.017310000000     0.363210000000    -0.118054   
C373     C      0.837070000000     0.023470000000     0.121430000000     0.103535   
C374     C      0.888260000000     0.012580000000     0.172610000000     0.111013   
C375     C      0.806420000000     0.026080000000     0.151670000000    -0.11428    
C376     C      0.752820000000     0.051650000000     0.225140000000    -0.0333219  
C377     C      0.722960000000     0.052490000000     0.256360000000    -0.0331101  
C378     C      0.784700000000     0.022180000000     0.225870000000    -0.0202208  
C379     C      0.858420000000     0.014840000000     0.203560000000    -0.120022   
C380     C      0.724400000000     0.023840000000     0.288860000000    -0.0208796  
C381     C      0.651310000000     0.030570000000     0.314000000000    -0.119514   
C382     C      0.755970000000     0.994050000000     0.289140000000    -0.0254988  
C383     C      0.622270000000     0.027980000000     0.345730000000     0.107624   
C384     C      0.675330000000     0.014440000000     0.394510000000     0.109733   
C385     C      0.785780000000     0.993290000000     0.258090000000    -0.0256508  
C386     C      0.690980000000     0.002600000000     0.434560000000     0.0480033  
C387     C      0.816880000000     0.021310000000     0.193280000000     0.0650255  
C388     C      0.693170000000     0.024550000000     0.322440000000     0.0659527  
C389     C      0.023030000000     0.199260000000     0.854850000000    -0.112713   
C390     C      0.016510000000     0.334210000000     0.616650000000     0.111671   
C391     C      0.015360000000     0.384060000000     0.670150000000     0.0991008  
C392     C      0.019700000000     0.302510000000     0.645480000000    -0.120164   
C393     C      0.998850000000     0.243030000000     0.714820000000    -0.0249876  
C394     C      0.999700000000     0.212620000000     0.745240000000    -0.0259078  
C395     C      0.023350000000     0.278580000000     0.718690000000    -0.0205906  
C396     C      0.018720000000     0.353120000000     0.699790000000    -0.112585   
C397     C      0.025140000000     0.217150000000     0.780070000000    -0.0191445  
C398     C      0.022190000000     0.144300000000     0.805330000000    -0.11105    
C399     C      0.050460000000     0.252210000000     0.783350000000    -0.0336661  
C400     C      0.019430000000     0.116050000000     0.837570000000     0.096329   
C401     C      0.020290000000     0.170420000000     0.886790000000     0.10588    
C402     C      0.049510000000     0.282650000000     0.753000000000    -0.0327442  
C403     C      0.019560000000     0.187370000000     0.928130000000     0.0528053  
C404     C      0.020800000000     0.311810000000     0.687570000000     0.0653329  
C405     C      0.023810000000     0.186400000000     0.813790000000     0.0633148  
C406     C      0.988270000000     0.697250000000     0.657170000000    -0.102924   
C407     C      0.995880000000     0.836420000000     0.896210000000     0.0981884  
C408     C      0.995310000000     0.886340000000     0.842970000000     0.0933115  
C409     C      0.994550000000     0.804520000000     0.867130000000    -0.105255   
C410     C      0.016930000000     0.744520000000     0.797390000000    -0.0427976  
C411     C      0.016490000000     0.713570000000     0.767120000000    -0.0425724  
C412     C      0.991990000000     0.779880000000     0.793420000000    -0.000322759
C413     C      0.993510000000     0.855160000000     0.813070000000    -0.102127   
C414     C      0.990900000000     0.717010000000     0.732150000000    -0.000404364
C415     C      0.996880000000     0.643260000000     0.706680000000    -0.10423    
C416     C      0.965180000000     0.751950000000     0.728870000000    -0.0349738  
C417     C      0.998180000000     0.614560000000     0.674300000000     0.0992256  
C418     C      0.989260000000     0.668030000000     0.625260000000     0.0980131  
C419     C      0.965910000000     0.782980000000     0.758890000000    -0.0351891  
C420     C      0.982440000000     0.684380000000     0.584360000000     0.0569788  
C421     C      0.993350000000     0.813560000000     0.824910000000     0.05609    
C422     C      0.992000000000     0.685330000000     0.698420000000     0.0564412  
C423     C      0.002550000000     0.705700000000     0.361790000000    -0.124582   
C424     C      0.000760000000     0.837830000000     0.122350000000     0.0960908  
C425     C      0.002200000000     0.889730000000     0.173870000000     0.112596   
C426     C      0.999230000000     0.807240000000     0.152350000000    -0.107403   
C427     C      0.021450000000     0.749600000000     0.221750000000    -0.0420226  
C428     C      0.020590000000     0.719290000000     0.252170000000    -0.0403475  
C429     C      0.998040000000     0.785820000000     0.226240000000    -0.00436811 
C430     C      0.000840000000     0.859850000000     0.204730000000    -0.127237   
C431     C      0.996490000000     0.724730000000     0.287740000000    -0.00676903 
C432     C      0.994850000000     0.651720000000     0.311740000000    -0.123434   
C433     C      0.972840000000     0.760740000000     0.292160000000    -0.0328831  
C434     C      0.997540000000     0.622810000000     0.343310000000     0.124384   
C435     C      0.005660000000     0.676160000000     0.393010000000     0.111429   
C436     C      0.973550000000     0.791000000000     0.261640000000    -0.0339144  
C437     C      0.015340000000     0.691960000000     0.433610000000     0.0539795  
C438     C      0.999300000000     0.818070000000     0.194070000000     0.0705754  
C439     C      0.997370000000     0.693590000000     0.320880000000     0.0777314  
C440     C      0.027500000000     0.361000000000     0.305900000000    -0.112577   
C441     C      0.027890000000     0.119330000000     0.170460000000     0.107726   
C442     C      0.028820000000     0.170810000000     0.118800000000     0.106739   
C443     C      0.031160000000     0.149340000000     0.201310000000    -0.117057   
C444     C      0.011870000000     0.218620000000     0.261080000000    -0.0421566  
C445     C      0.012090000000     0.249300000000     0.291510000000    -0.042656   
C446     C      0.033670000000     0.223880000000     0.223820000000    -0.0101139  
C447     C      0.031830000000     0.201680000000     0.148940000000    -0.1167     
C448     C      0.033870000000     0.286340000000     0.285550000000    -0.00982821 
C449     C      0.034820000000     0.310670000000     0.359430000000    -0.116683   
C450     C      0.055900000000     0.291600000000     0.248470000000    -0.0359624  
C451     C      0.031580000000     0.342130000000     0.388790000000     0.103234   
C452     C      0.023880000000     0.392130000000     0.335910000000     0.101385   
C453     C      0.055900000000     0.260790000000     0.218110000000    -0.0353168  
C454     C      0.016210000000     0.433230000000     0.320270000000     0.048173   
C455     C      0.032540000000     0.191300000000     0.190980000000     0.0599879  
C456     C      0.032530000000     0.319750000000     0.317360000000     0.0586358  
H1       H      0.974260000000     0.976450000000     0.037540000000    -1.24195    
H2       H      0.030260000000     0.028400000000     0.030630000000    -1.06775    
H3       H      0.970100000000     0.074640000000     0.968300000000    -0.507384   
H4       H      0.073460000000     0.963930000000     0.970170000000    -0.520714   
H5       H      0.976060000000     0.533370000000     0.475550000000    -1.24357    
H6       H      0.030960000000     0.480570000000     0.481790000000    -1.05184    
H7       H      0.967880000000     0.432200000000     0.539950000000    -0.481244   
H8       H      0.073220000000     0.541800000000     0.546590000000    -0.52852    
H9       H      0.475950000000     0.974700000000     0.474670000000    -1.27463    
H10      H      0.530450000000     0.028420000000     0.482460000000    -1.0664     
H11      H      0.572910000000     0.965980000000     0.545160000000    -0.522211   
H12      H      0.466730000000     0.074600000000     0.541330000000    -0.514941   
H13      H      0.474030000000     0.532230000000     0.035570000000    -1.25424    
H14      H      0.481220000000     0.478520000000     0.981300000000    -1.07126    
H15      H      0.545140000000     0.435290000000     0.041860000000    -0.492576   
H16      H      0.539690000000     0.543150000000     0.935240000000    -0.561241   
H17      H      0.505220000000     0.327050000000     0.090540000000     0.00778431 
H18      H      0.526900000000     0.177630000000     0.423390000000     0.0139125  
H19      H      0.465900000000     0.245610000000     0.199510000000     0.0356417  
H20      H      0.563160000000     0.264170000000     0.316420000000     0.0357374  
H21      H      0.525760000000     0.231710000000     0.372620000000     0.0556251  
H22      H      0.558010000000     0.317610000000     0.263560000000     0.0370322  
H23      H      0.517190000000     0.141340000000     0.276180000000     0.0573364  
H24      H      0.508940000000     0.274570000000     0.143560000000     0.0552523  
H25      H      0.508260000000     0.369470000000     0.236640000000     0.0579048  
H26      H      0.470460000000     0.192640000000     0.252440000000     0.0362624  
H27      H      0.504780000000     0.421300000000     0.183050000000     0.0215254  
H28      H      0.511120000000     0.825780000000     0.422620000000     0.0165127  
H29      H      0.508450000000     0.677880000000     0.088420000000     0.0189789  
H30      H      0.466130000000     0.745770000000     0.316520000000     0.0360027  
H31      H      0.554320000000     0.762690000000     0.192440000000     0.037106   
H32      H      0.509340000000     0.731820000000     0.139360000000     0.0546533  
H33      H      0.555290000000     0.815570000000     0.246060000000     0.0371616  
H34      H      0.511260000000     0.641220000000     0.235870000000     0.0575866  
H35      H      0.512120000000     0.773390000000     0.369440000000     0.0561721  
H36      H      0.511310000000     0.868610000000     0.276620000000     0.0582177  
H37      H      0.465100000000     0.693110000000     0.263040000000     0.0368778  
H38      H      0.510970000000     0.920260000000     0.330330000000     0.0149775  
H39      H      0.486530000000     0.681330000000     0.921260000000     0.0182417  
H40      H      0.495220000000     0.830490000000     0.587040000000     0.0210508  
H41      H      0.438460000000     0.759800000000     0.812770000000     0.0377657  
H42      H      0.531350000000     0.743860000000     0.692000000000     0.0373802  
H43      H      0.490100000000     0.775680000000     0.636820000000     0.0551518  
H44      H      0.531110000000     0.691240000000     0.745710000000     0.0366096  
H45      H      0.485110000000     0.864600000000     0.734710000000     0.0598712  
H46      H      0.483390000000     0.733400000000     0.867590000000     0.0581549  
H47      H      0.487880000000     0.637580000000     0.775510000000     0.0567672  
H48      H      0.438560000000     0.812330000000     0.759000000000     0.038993   
H49      H      0.491580000000     0.586520000000     0.829490000000     0.0102348  
H50      H      0.490800000000     0.329030000000     0.921060000000     0.0135371  
H51      H      0.499730000000     0.180620000000     0.587330000000     0.0122036  
H52      H      0.444390000000     0.247530000000     0.813790000000     0.0362413  
H53      H      0.531130000000     0.273480000000     0.690210000000     0.0366137  
H54      H      0.491750000000     0.235780000000     0.636470000000     0.0557703  
H55      H      0.526460000000     0.325990000000     0.743850000000     0.0359117  
H56      H      0.503830000000     0.149330000000     0.735910000000     0.0596538  
H57      H      0.488180000000     0.277660000000     0.866850000000     0.0572768  
H58      H      0.479750000000     0.374700000000     0.776320000000     0.0565505  
H59      H      0.449180000000     0.195030000000     0.760210000000     0.0379964  
H60      H      0.483280000000     0.425190000000     0.830840000000     0.0147889  
H61      H      0.921110000000     0.325790000000     0.500390000000     0.0123304  
H62      H      0.588620000000     0.173430000000     0.469820000000     0.0158279  
H63      H      0.823550000000     0.236900000000     0.446890000000     0.0367328  
H64      H      0.685060000000     0.270580000000     0.503460000000     0.036703   
H65      H      0.639420000000     0.227140000000     0.460170000000     0.0553374  
H66      H      0.738870000000     0.323130000000     0.503290000000     0.0395547  
H67      H      0.734840000000     0.144890000000     0.501400000000     0.0600648  
H68      H      0.868080000000     0.273300000000     0.494000000000     0.0571425  
H69      H      0.779940000000     0.367280000000     0.460380000000     0.060559   
H70      H      0.769700000000     0.184250000000     0.447420000000     0.0374531  
H71      H      0.833460000000     0.418740000000     0.467330000000     0.0323541  
H72      H      0.587330000000     0.825840000000     0.500740000000     0.0162214  
H73      H      0.920400000000     0.674610000000     0.490580000000     0.0316208  
H74      H      0.691400000000     0.740740000000     0.459880000000     0.0364262  
H75      H      0.820080000000     0.764720000000     0.539700000000     0.0399767  
H76      H      0.869510000000     0.728770000000     0.487770000000     0.0602732  
H77      H      0.766460000000     0.817470000000     0.539270000000     0.0378388  
H78      H      0.774550000000     0.642150000000     0.519890000000     0.0600072  
H79      H      0.640020000000     0.772930000000     0.500370000000     0.056509   
H80      H      0.733990000000     0.867430000000     0.498330000000     0.0606957  
H81      H      0.744580000000     0.687450000000     0.461870000000     0.0384576  
H82      H      0.680780000000     0.919220000000     0.501070000000     0.0237955  
H83      H      0.421610000000     0.181020000000     0.495880000000     0.00977152 
H84      H      0.089970000000     0.333810000000     0.476320000000     0.0153122  
H85      H      0.312130000000     0.259000000000     0.534940000000     0.0369395  
H86      H      0.198060000000     0.251440000000     0.432890000000     0.0355663  
H87      H      0.140810000000     0.279830000000     0.472570000000     0.0551949  
H88      H      0.250650000000     0.197250000000     0.434150000000     0.0362     
H89      H      0.237350000000     0.368570000000     0.492430000000     0.0591073  
H90      H      0.369330000000     0.234120000000     0.491000000000     0.0569529  
H91      H      0.275480000000     0.140390000000     0.479760000000     0.0578079  
H92      H      0.259590000000     0.312540000000     0.534190000000     0.0371558  
H93      H      0.328510000000     0.087800000000     0.484350000000     0.0233385  
H94      H      0.328670000000     0.922860000000     0.517600000000     0.0291128  
H95      H      0.153920000000     0.612810000000     0.562960000000     0.0127654  
H96      H      0.303500000000     0.761180000000     0.450960000000     0.0376477  
H97      H      0.203650000000     0.751510000000     0.566820000000     0.0389929  
H98      H      0.206240000000     0.667100000000     0.566220000000     0.0598041  
H99      H      0.257130000000     0.805310000000     0.567670000000     0.0388794  
H100     H      0.167610000000     0.710360000000     0.446900000000     0.0620813  
H101     H      0.275010000000     0.870430000000     0.519320000000     0.0591158  
H102     H      0.367510000000     0.776830000000     0.500480000000     0.0561019  
H103     H      0.249560000000     0.708120000000     0.449680000000     0.0392607  
H104     H      0.420630000000     0.829560000000     0.499830000000     0.0176779  
H105     H      0.591360000000     0.511840000000     0.178610000000     0.0268648  
H106     H      0.925240000000     0.508080000000     0.328850000000     0.0193285  
H107     H      0.698810000000     0.559250000000     0.257670000000     0.0377401  
H108     H      0.822320000000     0.470690000000     0.237740000000     0.0375214  
H109     H      0.876140000000     0.512850000000     0.273100000000     0.0581298  
H110     H      0.768780000000     0.472390000000     0.184670000000     0.0369712  
H111     H      0.776110000000     0.506120000000     0.359870000000     0.0594111  
H112     H      0.645600000000     0.513900000000     0.230010000000     0.0572433  
H113     H      0.736820000000     0.516710000000     0.133020000000     0.0547386  
H114     H      0.752210000000     0.557470000000     0.310630000000     0.0375263  
H115     H      0.682100000000     0.514040000000     0.082390000000     0.0200849  
H116     H      0.424460000000     0.501390000000     0.184900000000     0.0237659  
H117     H      0.093700000000     0.473970000000     0.338420000000     0.0199753  
H118     H      0.311390000000     0.547330000000     0.258340000000     0.0374454  
H119     H      0.205310000000     0.436890000000     0.260870000000     0.0357195  
H120     H      0.145380000000     0.471440000000     0.284960000000     0.057175   
H121     H      0.257840000000     0.437040000000     0.206680000000     0.0364635  
H122     H      0.236480000000     0.515800000000     0.370940000000     0.0602457  
H123     H      0.372160000000     0.499200000000     0.238400000000     0.058612   
H124     H      0.278020000000     0.485190000000     0.145410000000     0.0576396  
H125     H      0.258160000000     0.548530000000     0.311310000000     0.0375751  
H126     H      0.330840000000     0.488000000000     0.092380000000     0.0144083  
H127     H      0.329260000000     0.482000000000     0.925930000000     0.0203567  
H128     H      0.178280000000     0.489590000000     0.593680000000     0.0241066  
H129     H      0.245040000000     0.435060000000     0.820340000000     0.0360027  
H130     H      0.265140000000     0.524250000000     0.697670000000     0.0375029  
H131     H      0.231920000000     0.482630000000     0.644390000000     0.0586888  
H132     H      0.318710000000     0.521320000000     0.750290000000     0.0362449  
H133     H      0.141230000000     0.487510000000     0.741050000000     0.0581069  
H134     H      0.275920000000     0.478190000000     0.873600000000     0.05912    
H135     H      0.370180000000     0.475750000000     0.779500000000     0.0567244  
H136     H      0.191270000000     0.438080000000     0.767560000000     0.0370292  
H137     H      0.422630000000     0.480520000000     0.832250000000     0.0143682  
H138     H      0.587840000000     0.492160000000     0.828140000000     0.0106876  
H139     H      0.917570000000     0.526840000000     0.674020000000     0.0251989  
H140     H      0.686310000000     0.533700000000     0.738030000000     0.0363445  
H141     H      0.823650000000     0.472380000000     0.767790000000     0.0396157  
H142     H      0.865670000000     0.528450000000     0.727670000000     0.0584346  
H143     H      0.770260000000     0.470890000000     0.820780000000     0.0371502  
H144     H      0.777600000000     0.474120000000     0.644760000000     0.0615245  
H145     H      0.640040000000     0.491280000000     0.774720000000     0.0562937  
H146     H      0.733830000000     0.512580000000     0.867100000000     0.0574784  
H147     H      0.739410000000     0.533340000000     0.684590000000     0.0401876  
H148     H      0.681320000000     0.511330000000     0.919720000000     0.0206045  
H149     H      0.583340000000     0.681750000000     0.012990000000     0.0177401  
H150     H      0.917460000000     0.833520000000     0.993940000000     0.0238028  
H151     H      0.684640000000     0.768900000000     0.968550000000     0.0381774  
H152     H      0.817550000000     0.745650000000     0.041310000000     0.0356383  
H153     H      0.865840000000     0.780050000000     0.992820000000     0.0566294  
H154     H      0.764130000000     0.692730000000     0.043850000000     0.0356193  
H155     H      0.771060000000     0.870030000000     0.014760000000     0.0567484  
H156     H      0.635440000000     0.735530000000     0.013060000000     0.0535256  
H157     H      0.730360000000     0.642760000000     0.002020000000     0.0540114  
H158     H      0.737950000000     0.822010000000     0.966570000000     0.0398438  
H159     H      0.678010000000     0.589970000000     0.003150000000     0.0199937  
H160     H      0.596150000000     0.330870000000     0.996390000000     0.00889999 
H161     H      0.927780000000     0.181530000000     0.022220000000     0.0170981  
H162     H      0.699850000000     0.256760000000     0.052250000000     0.0348142  
H163     H      0.829870000000     0.271840000000     0.972380000000     0.0397304  
H164     H      0.879290000000     0.237980000000     0.024510000000     0.0580746  
H165     H      0.776310000000     0.324580000000     0.966470000000     0.0369196  
H166     H      0.779100000000     0.153590000000     0.004080000000     0.0569632  
H167     H      0.650840000000     0.280250000000     0.000660000000     0.0588596  
H168     H      0.740880000000     0.378340000000     0.004580000000     0.0581809  
H169     H      0.753100000000     0.203870000000     0.057520000000     0.0366799  
H170     H      0.685720000000     0.428190000000     0.999190000000     0.0182265  
H171     H      0.082460000000     0.824850000000     0.020010000000     0.01374    
H172     H      0.416070000000     0.677580000000     0.006290000000     0.0164235  
H173     H      0.186050000000     0.742880000000     0.972970000000     0.0370678  
H174     H      0.311980000000     0.755510000000     0.059490000000     0.0359221  
H175     H      0.363530000000     0.729770000000     0.009610000000     0.0554837  
H176     H      0.258390000000     0.808280000000     0.063910000000     0.0361556  
H177     H      0.269500000000     0.636240000000     0.011000000000     0.0567335  
H178     H      0.133990000000     0.770620000000     0.021580000000     0.0546495  
H179     H      0.230250000000     0.862630000000     0.019170000000     0.0587057  
H180     H      0.239620000000     0.690250000000     0.968440000000     0.0378084  
H181     H      0.178350000000     0.916030000000     0.018190000000     0.0148767  
H182     H      0.426580000000     0.325590000000     0.991250000000     0.013347   
H183     H      0.092540000000     0.175630000000     0.023830000000     0.0210267  
H184     H      0.325970000000     0.242690000000     0.041670000000     0.0313677  
H185     H      0.191790000000     0.259030000000     0.969420000000     0.0382329  
H186     H      0.144220000000     0.229010000000     0.021070000000     0.0552358  
H187     H      0.245040000000     0.311590000000     0.961130000000     0.0330954  
H188     H      0.239150000000     0.137440000000     0.007950000000     0.0564572  
H189     H      0.374380000000     0.271980000000     0.993510000000     0.0601652  
H190     H      0.279490000000     0.365340000000     0.997610000000     0.0607915  
H191     H      0.272850000000     0.189990000000     0.049550000000     0.0357961  
H192     H      0.332070000000     0.417960000000     0.994250000000     0.0177947  
H193     H      0.678720000000     0.000030000000     0.595910000000     0.0259677  
H194     H      0.831110000000     0.993960000000     0.926570000000     0.0386425  
H195     H      0.757330000000     0.951210000000     0.700660000000     0.0391751  
H196     H      0.742450000000     0.037890000000     0.825820000000     0.0399077  
H197     H      0.775700000000     0.991090000000     0.877320000000     0.0613044  
H198     H      0.688360000000     0.039200000000     0.773350000000     0.0391276  
H199     H      0.863330000000     0.999850000000     0.778220000000     0.0578148  
H200     H      0.730650000000     0.997410000000     0.649200000000     0.0587246  
H201     H      0.634310000000     0.998080000000     0.741220000000     0.0593079  
H202     H      0.811490000000     0.950320000000     0.752890000000     0.0394493  
H203     H      0.583170000000     0.001850000000     0.686870000000     0.0342993  
H204     H      0.087870000000     0.006930000000     0.828840000000     0.0207552  
H205     H      0.419120000000     0.003930000000     0.677370000000     0.0326079  
H206     H      0.191940000000     0.959300000000     0.747240000000     0.037958   
H207     H      0.316170000000     0.047940000000     0.760820000000     0.0378499  
H208     H      0.368190000000     0.002690000000     0.730870000000     0.0581662  
H209     H      0.263960000000     0.048620000000     0.815100000000     0.037409   
H210     H      0.271620000000     0.003780000000     0.639900000000     0.0565276  
H211     H      0.140090000000     0.006830000000     0.775590000000     0.0558806  
H212     H      0.234910000000     0.003510000000     0.869070000000     0.0591242  
H213     H      0.244200000000     0.958440000000     0.693070000000     0.0383112  
H214     H      0.181920000000     0.004100000000     0.921860000000     0.0210754  
H215     H      0.329130000000     0.011970000000     0.417970000000     0.0201588  
H216     H      0.178790000000     0.025650000000     0.086270000000     0.0241568  
H217     H      0.251980000000     0.065400000000     0.313840000000     0.0334851  
H218     H      0.267130000000     0.982380000000     0.186270000000     0.0498873  
H219     H      0.233990000000     0.030220000000     0.135700000000     0.0557876  
H220     H      0.320720000000     0.978980000000     0.239060000000     0.0314889  
H221     H      0.146340000000     0.018940000000     0.234510000000     0.0568671  
H222     H      0.277850000000     0.017680000000     0.364200000000     0.0571859  
H223     H      0.374980000000     0.016920000000     0.272980000000     0.0566499  
H224     H      0.198170000000     0.068240000000     0.261250000000     0.0384343  
H225     H      0.425620000000     0.010020000000     0.327510000000     0.0159683  
H226     H      0.919940000000     0.007220000000     0.182110000000     0.0130126  
H227     H      0.590290000000     0.032610000000     0.337170000000     0.0224107  
H228     H      0.809430000000     0.969670000000     0.259060000000     0.0378727  
H229     H      0.699210000000     0.075990000000     0.255440000000     0.0359305  
H230     H      0.640730000000     0.036100000000     0.282790000000     0.0576819  
H231     H      0.751400000000     0.074510000000     0.200840000000     0.0364265  
H232     H      0.737460000000     0.013040000000     0.370590000000     0.0585169  
H233     H      0.867920000000     0.011660000000     0.235440000000     0.0569029  
H234     H      0.774630000000     0.031010000000     0.142400000000     0.058381   
H235     H      0.757400000000     0.970900000000     0.313160000000     0.038188   
H236     H      0.827600000000     0.027500000000     0.089650000000     0.0282287  
H237     H      0.013600000000     0.415590000000     0.681030000000     0.0256169  
H238     H      0.018310000000     0.083780000000     0.828990000000     0.0255076  
H239     H      0.069250000000     0.309400000000     0.756400000000     0.0366276  
H240     H      0.979470000000     0.186210000000     0.742110000000     0.0388735  
H241     H      0.023230000000     0.133080000000     0.773880000000     0.0560453  
H242     H      0.978060000000     0.239300000000     0.688890000000     0.0378599  
H243     H      0.023680000000     0.231930000000     0.862060000000     0.0586297  
H244     H      0.018970000000     0.361530000000     0.732120000000     0.057911   
H245     H      0.021650000000     0.270930000000     0.634810000000     0.0555434  
H246     H      0.070910000000     0.256190000000     0.809490000000     0.03702    
H247     H      0.015840000000     0.325550000000     0.584370000000     0.0101115  
H248     H      0.995670000000     0.917960000000     0.832200000000     0.0308452  
H249     H      0.002300000000     0.582540000000     0.682870000000     0.0205884  
H250     H      0.945690000000     0.809340000000     0.755210000000     0.0391339  
H251     H      0.037070000000     0.687490000000     0.770640000000     0.0374372  
H252     H      0.999360000000     0.632280000000     0.738120000000     0.0594405  
H253     H      0.037660000000     0.741230000000     0.823410000000     0.0373715  
H254     H      0.984880000000     0.729640000000     0.649560000000     0.0595693  
H255     H      0.992960000000     0.863680000000     0.780790000000     0.0584042  
H256     H      0.993970000000     0.772890000000     0.877790000000     0.0574004  
H257     H      0.944250000000     0.755410000000     0.703050000000     0.0388619  
H258     H      0.996690000000     0.827640000000     0.928450000000     0.0227394  
H259     H      0.003420000000     0.921720000000     0.183440000000     0.0165763  
H260     H      0.994940000000     0.590740000000     0.334290000000     0.0141956  
H261     H      0.954670000000     0.818280000000     0.265610000000     0.0390008  
H262     H      0.039600000000     0.692070000000     0.248350000000     0.037534   
H263     H      0.990570000000     0.641260000000     0.280290000000     0.0613687  
H264     H      0.041100000000     0.745020000000     0.195100000000     0.036377   
H265     H      0.005760000000     0.738180000000     0.369200000000     0.0617974  
H266     H      0.001520000000     0.869470000000     0.236710000000     0.0592156  
H267     H      0.997490000000     0.775290000000     0.142810000000     0.0566597  
H268     H      0.953680000000     0.765420000000     0.319160000000     0.0390594  
H269     H      0.000530000000     0.827890000000     0.090430000000     0.0166086  
H270     H      0.027780000000     0.180540000000     0.086840000000     0.0156865  
H271     H      0.033590000000     0.332840000000     0.420830000000     0.0146955  
H272     H      0.073670000000     0.265840000000     0.190270000000     0.0351929  
H273     H      0.994230000000     0.244400000000     0.319330000000     0.0442123  
H274     H      0.039220000000     0.279250000000     0.369810000000     0.0533096  
H275     H      0.993700000000     0.191120000000     0.266490000000     0.044214   
H276     H      0.024950000000     0.368880000000     0.273480000000     0.0562022  
H277     H      0.032450000000     0.233580000000     0.139180000000     0.0548374  
H278     H      0.032570000000     0.139480000000     0.233180000000     0.0553902  
H279     H      0.073470000000     0.319490000000     0.243020000000     0.0355743  
H280     H      0.026320000000     0.087480000000     0.180300000000     0.0203162  
N1       N      0.521350000000     0.127540000000     0.380140000000    -0.26299    
N2       N      0.504970000000     0.378160000000     0.132680000000    -0.254046   
N3       N      0.509370000000     0.038060000000     0.307070000000    -0.12291    
N4       N      0.508420000000     0.627540000000     0.131830000000    -0.232549   
N5       N      0.510730000000     0.876990000000     0.380590000000    -0.255513   
N6       N      0.508690000000     0.537460000000     0.205140000000    -0.109199   
N7       N      0.493040000000     0.880160000000     0.631190000000    -0.225275   
N8       N      0.489720000000     0.630020000000     0.879550000000    -0.255046   
N9       N      0.486750000000     0.967760000000     0.707480000000    -0.0933534  
N10      N      0.505440000000     0.132110000000     0.632430000000    -0.241442   
N11      N      0.488090000000     0.381000000000     0.880110000000    -0.266011   
N12      N      0.522810000000     0.047900000000     0.711010000000    -0.0979141  
N13      N      0.631650000000     0.127440000000     0.490900000000    -0.258527   
N14      N      0.881010000000     0.376380000000     0.485550000000    -0.251384   
N15      N      0.703330000000     0.049780000000     0.539140000000    -0.110767   
N16      N      0.877900000000     0.626540000000     0.508010000000    -0.231868   
N17      N      0.630020000000     0.876580000000     0.500930000000    -0.254734   
N18      N      0.806290000000     0.543070000000     0.545720000000    -0.0946233  
N19      N      0.133260000000     0.382930000000     0.488100000000    -0.260042   
N20      N      0.379030000000     0.130380000000     0.490920000000    -0.254921   
N21      N      0.206420000000     0.469900000000     0.512480000000    -0.110471   
N22      N      0.129770000000     0.631750000000     0.504520000000    -0.250377   
N23      N      0.378730000000     0.880320000000     0.508410000000    -0.235228   
N24      N      0.096740000000     0.643780000000     0.395380000000    -0.104827   
N25      N      0.879850000000     0.505000000000     0.377410000000    -0.24871    
N26      N      0.632490000000     0.512480000000     0.126600000000    -0.230824   
N27      N      0.802210000000     0.497850000000     0.463930000000    -0.0964259  
N28      N      0.134210000000     0.497260000000     0.385460000000    -0.263986   
N29      N      0.381630000000     0.495150000000     0.134580000000    -0.255235   
N30      N      0.197370000000     0.551400000000     0.465930000000    -0.102406   
N31      N      0.127840000000     0.492320000000     0.637020000000    -0.241978   
N32      N      0.379950000000     0.482480000000     0.883090000000    -0.268814   
N33      N      0.037480000000     0.499090000000     0.709700000000    -0.104827   
N34      N      0.878050000000     0.499770000000     0.628000000000    -0.228645   
N35      N      0.630590000000     0.501800000000     0.877910000000    -0.248991   
N36      N      0.817530000000     0.439710000000     0.549770000000    -0.0982099  
N37      N      0.875030000000     0.883550000000     0.005030000000    -0.234349   
N38      N      0.626540000000     0.631740000000     0.007870000000    -0.228734   
N39      N      0.803600000000     0.971540000000     0.030520000000    -0.0993522  
N40      N      0.882060000000     0.134300000000     0.011800000000    -0.250303   
N41      N      0.636750000000     0.383300000000     0.998140000000    -0.251837   
N42      N      0.805680000000     0.050970000000     0.984750000000    -0.101554   
N43      N      0.374050000000     0.625960000000     0.006600000000    -0.251902   
N44      N      0.126510000000     0.874450000000     0.018480000000    -0.257603   
N45      N      0.303920000000     0.533420000000     0.004140000000    -0.123856   
N46      N      0.134960000000     0.124890000000     0.016900000000    -0.258178   
N47      N      0.383450000000     0.375880000000     0.993350000000    -0.265814   
N48      N      0.206340000000     0.034220000000     0.003910000000    -0.122334   
N49      N      0.880110000000     0.999440000000     0.881830000000    -0.215842   
N50      N      0.627040000000     0.003030000000     0.637290000000    -0.240718   
N51      N      0.968260000000     0.007530000000     0.806520000000    -0.103788   
N52      N      0.376010000000     0.003420000000     0.626700000000    -0.227127   
N53      N      0.130920000000     0.005300000000     0.879400000000    -0.246884   
N54      N      0.303660000000     0.006720000000     0.535950000000    -0.110004   
N55      N      0.129810000000     0.019340000000     0.130850000000    -0.262896   
N56      N      0.381310000000     0.010600000000     0.376880000000    -0.255511   
N57      N      0.042260000000     0.004800000000     0.205840000000    -0.123656   
N58      N      0.633620000000     0.019490000000     0.385790000000    -0.263583   
N59      N      0.877630000000     0.016320000000     0.131770000000    -0.25402    
N60      N      0.707150000000     0.990660000000     0.471200000000    -0.102838   
N61      N      0.018070000000     0.128530000000     0.878160000000    -0.242148   
N62      N      0.014210000000     0.374690000000     0.628870000000    -0.247295   
N63      N      0.018870000000     0.203460000000     0.966750000000    -0.116845   
N64      N      0.994960000000     0.626390000000     0.633570000000    -0.224062   
N65      N      0.996590000000     0.877130000000     0.884330000000    -0.226405   
N66      N      0.975600000000     0.701220000000     0.546760000000    -0.0966494  
N67      N      0.002950000000     0.634440000000     0.383810000000    -0.254649   
N68      N      0.002130000000     0.878790000000     0.132980000000    -0.255685   
N69      N      0.025800000000     0.707540000000     0.470970000000    -0.0953088  
N70      N      0.025720000000     0.382740000000     0.377720000000    -0.25871    
N71      N      0.026140000000     0.129880000000     0.129440000000    -0.263586   
N72      N      0.008890000000     0.471590000000     0.305310000000    -0.122699   
O1       O      0.018860000000     0.111470000000     0.060050000000    -1.03769    
O2       O      0.003290000000     0.895930000000     0.063420000000    -0.793358   
O3       O      0.947120000000     0.009150000000     0.113410000000    -1.01171    
O4       O      0.060110000000     0.012950000000     0.112270000000    -1.07744    
O5       O      0.111590000000     0.012370000000     0.061380000000    -1.05519    
O6       O      0.895300000000     0.013190000000     0.062010000000    -0.780944   
O7       O      0.003140000000     0.948360000000     0.114200000000    -1.00524    
O8       O      0.015860000000     0.060810000000     0.111890000000    -1.05936    
O9       O      0.048040000000     0.963870000000     0.051390000000    -2.07348    
O10      O      0.966500000000     0.051020000000     0.049950000000    -2.07482    
O11      O      0.958350000000     0.962000000000     0.053580000000    -0.860653   
O12      O      0.013820000000     0.012920000000     0.014690000000    -2.57162    
O13      O      0.998780000000     0.897070000000     0.953710000000    -0.698468   
O14      O      0.013190000000     0.110540000000     0.948120000000    -0.927195   
O15      O      0.895730000000     0.953210000000     0.006400000000    -0.726212   
O16      O      0.110570000000     0.944230000000     0.012780000000    -0.960561   
O17      O      0.113540000000     0.055830000000     0.014120000000    -1.04769    
O18      O      0.898390000000     0.063960000000     0.010740000000    -0.772234   
O19      O      0.950390000000     0.003360000000     0.899870000000    -0.588665   
O20      O      0.061250000000     0.004590000000     0.897470000000    -0.636724   
O21      O      0.898570000000     0.003340000000     0.951740000000    -0.705772   
O22      O      0.112710000000     0.003660000000     0.949240000000    -0.923239   
O23      O      0.945890000000     0.899520000000     0.006360000000    -0.724157   
O24      O      0.951430000000     0.113740000000     0.009120000000    -0.937742   
O25      O      0.064280000000     0.108960000000     0.013900000000    -1.02973    
O26      O      0.057250000000     0.894480000000     0.014860000000    -0.764217   
O27      O      0.002280000000     0.947570000000     0.900430000000    -0.580921   
O28      O      0.011350000000     0.059060000000     0.896950000000    -0.62502    
O29      O      0.050470000000     0.046120000000     0.966490000000    -1.98087    
O30      O      0.965910000000     0.967540000000     0.968680000000    -1.5837     
O31      O      0.961120000000     0.048190000000     0.960790000000    -1.2302     
O32      O      0.046450000000     0.956880000000     0.962310000000    -1.23758    
O33      O      0.018520000000     0.399020000000     0.447890000000    -1.01985    
O34      O      0.005110000000     0.614720000000     0.453320000000    -0.773095   
O35      O      0.949800000000     0.505540000000     0.397620000000    -0.981636   
O36      O      0.063900000000     0.499220000000     0.401700000000    -1.06444    
O37      O      0.113820000000     0.500350000000     0.454430000000    -1.06115    
O38      O      0.896970000000     0.501810000000     0.447650000000    -0.802163   
O39      O      0.005820000000     0.564330000000     0.400840000000    -1.00721    
O40      O      0.017390000000     0.451740000000     0.398460000000    -1.05812    
O41      O      0.050430000000     0.545520000000     0.464170000000    -2.08084    
O42      O      0.967450000000     0.459770000000     0.459480000000    -2.08081    
O43      O      0.960770000000     0.548740000000     0.459750000000    -0.870082   
O44      O      0.014200000000     0.495560000000     0.497860000000    -2.5603     
O45      O      0.999700000000     0.608910000000     0.563090000000    -0.694282   
O46      O      0.010750000000     0.394900000000     0.559890000000    -0.92658    
O47      O      0.897020000000     0.556580000000     0.506570000000    -0.743575   
O48      O      0.112440000000     0.562750000000     0.511130000000    -0.94755    
O49      O      0.113000000000     0.451680000000     0.497210000000    -1.06545    
O50      O      0.898200000000     0.445970000000     0.492390000000    -0.771415   
O51      O      0.948100000000     0.500850000000     0.611530000000    -0.593058   
O52      O      0.058380000000     0.497800000000     0.616600000000    -0.627983   
O53      O      0.897420000000     0.500330000000     0.558200000000    -0.722399   
O54      O      0.111160000000     0.498050000000     0.566660000000    -0.930878   
O55      O      0.948210000000     0.609470000000     0.508290000000    -0.715823   
O56      O      0.950190000000     0.394970000000     0.496860000000    -0.920415   
O57      O      0.063030000000     0.399260000000     0.493960000000    -1.0316     
O58      O      0.060420000000     0.612850000000     0.500070000000    -0.732559   
O59      O      0.000450000000     0.556430000000     0.614220000000    -0.577502   
O60      O      0.007970000000     0.444620000000     0.613190000000    -0.621686   
O61      O      0.049000000000     0.459590000000     0.545460000000    -1.98185    
O62      O      0.965700000000     0.539740000000     0.544180000000    -1.60085    
O63      O      0.959540000000     0.458610000000     0.548420000000    -1.26739    
O64      O      0.046030000000     0.549020000000     0.553570000000    -1.25042    
O65      O      0.613410000000     0.013070000000     0.454910000000    -1.04948    
O66      O      0.397000000000     0.007810000000     0.447020000000    -0.80019    
O67      O      0.508550000000     0.946470000000     0.399240000000    -1.02199    
O68      O      0.516410000000     0.058380000000     0.400100000000    -1.08141    
O69      O      0.516420000000     0.110420000000     0.450250000000    -1.03906    
O70      O      0.508500000000     0.894560000000     0.450510000000    -0.791722   
O71      O      0.450530000000     0.005470000000     0.397340000000    -1.01189    
O72      O      0.563620000000     0.012770000000     0.402280000000    -1.07744    
O73      O      0.466920000000     0.048820000000     0.460630000000    -2.10071    
O74      O      0.550560000000     0.963800000000     0.463630000000    -2.0911     
O75      O      0.460970000000     0.959540000000     0.458420000000    -0.871581   
O76      O      0.513850000000     0.012920000000     0.498210000000    -2.57438    
O77      O      0.396790000000     0.003340000000     0.557160000000    -0.725611   
O78      O      0.610760000000     0.005060000000     0.567050000000    -0.923635   
O79      O      0.448890000000     0.897600000000     0.506140000000    -0.74608    
O80      O      0.448590000000     0.112140000000     0.498970000000    -0.938775   
O81      O      0.561630000000     0.110000000000     0.496250000000    -1.04718    
O82      O      0.560170000000     0.895110000000     0.502290000000    -0.77361    
O83      O      0.499280000000     0.950260000000     0.612910000000    -0.571036   
O84      O      0.505660000000     0.061710000000     0.614710000000    -0.616314   
O85      O      0.498740000000     0.898320000000     0.561220000000    -0.71441    
O86      O      0.507410000000     0.112490000000     0.562730000000    -0.930024   
O87      O      0.397160000000     0.950130000000     0.505670000000    -0.733567   
O88      O      0.612170000000     0.946260000000     0.504500000000    -0.934412   
O89      O      0.612480000000     0.058330000000     0.500300000000    -1.0333     
O90      O      0.396850000000     0.060790000000     0.495400000000    -0.770983   
O91      O      0.446700000000     0.005440000000     0.610800000000    -0.585978   
O92      O      0.557740000000     0.006200000000     0.617190000000    -0.624757   
O93      O      0.548400000000     0.048360000000     0.546830000000    -1.97744    
O94      O      0.465810000000     0.967260000000     0.543390000000    -1.60759    
O95      O      0.545870000000     0.958670000000     0.552550000000    -1.2405     
O96      O      0.458520000000     0.047990000000     0.549170000000    -1.25087    
O97      O      0.453050000000     0.395250000000     0.996810000000    -1.01463    
O98      O      0.444930000000     0.611070000000     0.004570000000    -0.773585   
O99      O      0.398980000000     0.498420000000     0.064700000000    -1.01138    
O100     O      0.398500000000     0.491120000000     0.952090000000    -1.06326    
O101     O      0.449110000000     0.492160000000     0.900010000000    -1.07856    
O102     O      0.451220000000     0.498900000000     0.115780000000    -0.807695   
O103     O      0.396160000000     0.557130000000     0.007340000000    -1.02203    
O104     O      0.400510000000     0.445390000000     0.998450000000    -1.06339    
O105     O      0.458730000000     0.542350000000     0.961910000000    -2.09091    
O106     O      0.463200000000     0.457520000000     0.045880000000    -2.0871     
O107     O      0.457860000000     0.546790000000     0.051250000000    -0.865934   
O108     O      0.497160000000     0.494720000000     0.997020000000    -2.56139    
O109     O      0.556590000000     0.612170000000     0.007770000000    -0.69085    
O110     O      0.566120000000     0.398470000000     0.999840000000    -0.909339   
O111     O      0.507000000000     0.557850000000     0.112410000000    -0.762235   
O112     O      0.496770000000     0.560920000000     0.898200000000    -0.975993   
O113     O      0.494590000000     0.449690000000     0.899100000000    -1.07726    
O114     O      0.503410000000     0.447600000000     0.113980000000    -0.790595   
O115     O      0.613010000000     0.508290000000     0.057490000000    -0.594071   
O116     O      0.613300000000     0.504410000000     0.947520000000    -0.632225   
O117     O      0.561960000000     0.508180000000     0.110460000000    -0.7268     
O118     O      0.560790000000     0.501530000000     0.896990000000    -0.955788   
O119     O      0.504360000000     0.610460000000     0.061370000000    -0.715364   
O120     O      0.505890000000     0.395960000000     0.062600000000    -0.921291   
O121     O      0.497130000000     0.397570000000     0.949680000000    -1.02333    
O122     O      0.493960000000     0.612460000000     0.949620000000    -0.738576   
O123     O      0.610130000000     0.561790000000     0.004360000000    -0.587797   
O124     O      0.615900000000     0.451840000000     0.999590000000    -0.625437   
O125     O      0.545230000000     0.461180000000     0.960420000000    -1.98303    
O126     O      0.542740000000     0.542620000000     0.042460000000    -1.60321    
O127     O      0.552330000000     0.462200000000     0.049650000000    -1.26233    
O128     O      0.547740000000     0.551070000000     0.961890000000    -1.22558    
Tb1      Tb     0.003840000000     0.004660000000     0.076120000000     6.36429    
Tb2      Tb     0.003660000000     0.935330000000     0.009710000000     4.25713    
Tb3      Tb     0.006650000000     0.074330000000     0.004860000000     6.18205    
Tb4      Tb     0.935650000000     0.008050000000     0.008580000000     4.32186    
Tb5      Tb     0.074910000000     0.001220000000     0.005870000000     6.28032    
Tb6      Tb     0.006940000000     0.005020000000     0.936960000000     3.18631    
Tb7      Tb     0.006200000000     0.506520000000     0.436460000000     6.30731    
Tb8      Tb     0.005340000000     0.573060000000     0.505510000000     4.22619    
Tb9      Tb     0.005850000000     0.433790000000     0.504620000000     6.08756    
Tb10     Tb     0.936020000000     0.501150000000     0.501920000000     4.48639    
Tb11     Tb     0.075250000000     0.506070000000     0.509230000000     6.36873    
Tb12     Tb     0.005260000000     0.500290000000     0.575490000000     3.16378    
Tb13     Tb     0.506180000000     0.002950000000     0.436650000000     6.42598    
Tb14     Tb     0.435700000000     0.006000000000     0.501680000000     4.40142    
Tb15     Tb     0.574940000000     0.002820000000     0.509200000000     6.23123    
Tb16     Tb     0.505490000000     0.934910000000     0.504180000000     4.3724     
Tb17     Tb     0.504850000000     0.074410000000     0.506350000000     6.22739    
Tb18     Tb     0.504670000000     0.006690000000     0.575570000000     3.15384    
Tb19     Tb     0.435570000000     0.502210000000     0.007540000000     6.36481    
Tb20     Tb     0.500450000000     0.573210000000     0.004590000000     4.154      
Tb21     Tb     0.508150000000     0.433660000000     0.005850000000     6.04611    
Tb22     Tb     0.504200000000     0.502200000000     0.074570000000     4.51445    
Tb23     Tb     0.504690000000     0.505050000000     0.935600000000     6.48398    
Tb24     Tb     0.574430000000     0.504390000000     0.002170000000     3.16038    


