data_structure

_audit_creation_method RASPA-1.0
_audit_creation_date 2023-5-19
_audit_author_name 'Poobodin Mano'

_cell_length_a    32.3287
_cell_length_b    32.4484
_cell_length_c    32.3475
_cell_angle_alpha 90
_cell_angle_beta  90
_cell_angle_gamma 90
_cell_volume      33933

_symmetry_cell_setting          triclinic
_symmetry_space_group_name_Hall 'P 1'
_symmetry_space_group_name_H-M  'P 1'
_symmetry_Int_Tables_number     1

_symmetry_equiv_pos_as_xyz 'x,y,z'

loop_
_atom_site_label
_atom_site_type_symbol
_atom_site_fract_x
_atom_site_fract_y
_atom_site_fract_z
_atom_site_charge
C1       C      0.008690000000     0.089390000000     0.096900000000     0.720588   
C2       C      0.001290000000     0.897370000000     0.094330000000     0.680596   
C3       C      0.900550000000     0.994920000000     0.097580000000     0.665685   
C4       C      0.093560000000     0.006680000000     0.092800000000     0.729787   
C5       C      0.990240000000     0.902690000000     0.903880000000     0.560911   
C6       C      0.002860000000     0.092920000000     0.904480000000     0.642261   
C7       C      0.901960000000     0.901090000000     0.997420000000     0.585496   
C8       C      0.093160000000     0.899240000000     0.004630000000     0.690181   
C9       C      0.093120000000     0.090550000000     0.010570000000     0.709372   
C10      C      0.900350000000     0.091330000000     0.010250000000     0.685367   
C11      C      0.901080000000     0.995720000000     0.907330000000     0.570469   
C12      C      0.091550000000     0.000610000000     0.901100000000     0.657211   
C13      C      0.015900000000     0.400020000000     0.406270000000     0.720958   
C14      C      0.010390000000     0.591800000000     0.404080000000     0.687042   
C15      C      0.907870000000     0.495000000000     0.395440000000     0.680464   
C16      C      0.099200000000     0.480210000000     0.412630000000     0.735385   
C17      C      0.988580000000     0.590250000000     0.593750000000     0.555873   
C18      C      0.992190000000     0.399640000000     0.596700000000     0.650529   
C19      C      0.901660000000     0.590350000000     0.493220000000     0.595191   
C20      C      0.093390000000     0.591880000000     0.502480000000     0.689009   
C21      C      0.090620000000     0.399450000000     0.497330000000     0.736634   
C22      C      0.899260000000     0.400780000000     0.482370000000     0.688775   
C23      C      0.895360000000     0.500930000000     0.587380000000     0.567175   
C24      C      0.085180000000     0.488430000000     0.603410000000     0.658221   
C25      C      0.592250000000     0.010600000000     0.406630000000     0.722598   
C26      C      0.399980000000     0.999450000000     0.403840000000     0.665131   
C27      C      0.499300000000     0.898290000000     0.405610000000     0.678915   
C28      C      0.506930000000     0.090330000000     0.404490000000     0.733885   
C29      C      0.402190000000     0.995160000000     0.594600000000     0.572735   
C30      C      0.592560000000     0.005280000000     0.598130000000     0.648708   
C31      C      0.403700000000     0.900310000000     0.503050000000     0.588312   
C32      C      0.398720000000     0.090900000000     0.493850000000     0.692472   
C33      C      0.590640000000     0.091870000000     0.486730000000     0.720994   
C34      C      0.595240000000     0.901790000000     0.494060000000     0.688862   
C35      C      0.494670000000     0.902620000000     0.595940000000     0.565251   
C36      C      0.501690000000     0.093100000000     0.596440000000     0.656564   
C37      C      0.401110000000     0.403150000000     0.018400000000     0.722357   
C38      C      0.592800000000     0.398660000000     0.994270000000     0.680611   
C39      C      0.484610000000     0.400910000000     0.903090000000     0.68356    
C40      C      0.493330000000     0.401490000000     0.096290000000     0.739965   
C41      C      0.593120000000     0.589140000000     0.990940000000     0.57074    
C42      C      0.403480000000     0.594090000000     0.014820000000     0.659541   
C43      C      0.586570000000     0.494190000000     0.899400000000     0.582499   
C44      C      0.599940000000     0.486040000000     0.089640000000     0.693872   
C45      C      0.407780000000     0.483990000000     0.100080000000     0.716561   
C46      C      0.395720000000     0.494880000000     0.908750000000     0.695811   
C47      C      0.498100000000     0.591050000000     0.905730000000     0.564603   
C48      C      0.500440000000     0.592310000000     0.096800000000     0.655345   
C49      C      0.503700000000     0.348990000000     0.197490000000    -0.163914   
C50      C      0.505250000000     0.108610000000     0.333060000000     0.113503   
C51      C      0.512250000000     0.160770000000     0.383890000000     0.11168    
C52      C      0.503210000000     0.138310000000     0.301810000000    -0.122167   
C53      C      0.471340000000     0.210860000000     0.249150000000    -0.0369605  
C54      C      0.467940000000     0.241960000000     0.219250000000    -0.0316554  
C55      C      0.502800000000     0.212270000000     0.279160000000    -0.0127404  
C56      C      0.511010000000     0.191210000000     0.353330000000    -0.12189    
C57      C      0.496200000000     0.274950000000     0.218490000000    -0.021107   
C58      C      0.481710000000     0.300530000000     0.146130000000    -0.130589   
C59      C      0.528230000000     0.275580000000     0.248060000000    -0.0315554  
C60      C      0.482170000000     0.332200000000     0.116760000000     0.111925   
C61      C      0.507200000000     0.379630000000     0.167020000000     0.215677   
C62      C      0.531240000000     0.244890000000     0.278180000000    -0.0372984  
C63      C      0.505760000000     0.180180000000     0.311800000000     0.0645298  
C64      C      0.492870000000     0.308610000000     0.187100000000     0.082142   
C65      C      0.491040000000     0.845060000000     0.305430000000    -0.162935   
C66      C      0.498120000000     0.662670000000     0.117350000000     0.0988936  
C67      C      0.508740000000     0.610400000000     0.167480000000     0.112976   
C68      C      0.500380000000     0.692940000000     0.147870000000    -0.112917   
C69      C      0.527800000000     0.752110000000     0.214330000000    -0.0370821  
C70      C      0.528270000000     0.782430000000     0.244910000000    -0.0318133  
C71      C      0.509720000000     0.713430000000     0.222090000000    -0.0115059  
C72      C      0.511820000000     0.639870000000     0.198620000000    -0.119671   
C73      C      0.511290000000     0.774410000000     0.283990000000    -0.0218258  
C74      C      0.521250000000     0.799870000000     0.355980000000    -0.129565   
C75      C      0.494170000000     0.735570000000     0.292210000000    -0.0315848  
C76      C      0.516600000000     0.830620000000     0.385600000000     0.109409   
C77      C      0.484160000000     0.874630000000     0.336290000000     0.210144   
C78      C      0.493120000000     0.705460000000     0.261500000000    -0.0369444  
C79      C      0.507480000000     0.681730000000     0.189100000000     0.062302   
C80      C      0.508970000000     0.807250000000     0.315370000000     0.0829831  
C81      C      0.506970000000     0.643450000000     0.804370000000    -0.152661   
C82      C      0.488540000000     0.883330000000     0.667040000000     0.0911498  
C83      C      0.495180000000     0.831690000000     0.615710000000     0.0968097  
C84      C      0.487170000000     0.853250000000     0.698100000000    -0.106281   
C85      C      0.462250000000     0.779030000000     0.752790000000    -0.0376618  
C86      C      0.462860000000     0.748060000000     0.783070000000    -0.0321741  
C87      C      0.491320000000     0.779040000000     0.720440000000    -0.00923966 
C88      C      0.494580000000     0.800920000000     0.646020000000    -0.108693   
C89      C      0.492910000000     0.716600000000     0.782060000000    -0.0180316  
C90      C      0.484270000000     0.691660000000     0.855660000000    -0.117421   
C91      C      0.522370000000     0.717260000000     0.749930000000    -0.0318812  
C92      C      0.487000000000     0.660490000000     0.885470000000     0.0954582  
C93      C      0.512290000000     0.613370000000     0.835270000000     0.199376   
C94      C      0.521350000000     0.747800000000     0.719430000000    -0.0377598  
C95      C      0.490680000000     0.811470000000     0.687820000000     0.0563983  
C96      C      0.493990000000     0.683410000000     0.814320000000     0.0745593  
C97      C      0.473060000000     0.349190000000     0.802530000000    -0.161986   
C98      C      0.507500000000     0.113110000000     0.666950000000     0.0967502  
C99      C      0.499280000000     0.163960000000     0.614830000000     0.113108   
C100     C      0.507420000000     0.143420000000     0.697480000000    -0.113848   
C101     C      0.529300000000     0.219970000000     0.749410000000    -0.0374595  
C102     C      0.526150000000     0.250500000000     0.779630000000    -0.0307086  
C103     C      0.499260000000     0.216910000000     0.718280000000    -0.0116304  
C104     C      0.498420000000     0.194940000000     0.644590000000    -0.120956   
C105     C      0.492570000000     0.278090000000     0.779560000000    -0.0217599  
C106     C      0.499060000000     0.301440000000     0.852960000000    -0.133281   
C107     C      0.462360000000     0.274550000000     0.748470000000    -0.0306483  
C108     C      0.495410000000     0.331890000000     0.883000000000     0.116206   
C109     C      0.467160000000     0.378580000000     0.833750000000     0.210788   
C110     C      0.465870000000     0.244470000000     0.717950000000    -0.0375778  
C111     C      0.502220000000     0.184700000000     0.686360000000     0.063073   
C112     C      0.488740000000     0.310150000000     0.811990000000     0.0837769  
C113     C      0.799080000000     0.349640000000     0.462450000000    -0.160408   
C114     C      0.661490000000     0.111700000000     0.483620000000     0.110809   
C115     C      0.609140000000     0.162110000000     0.475240000000     0.110837   
C116     C      0.692060000000     0.141950000000     0.481280000000    -0.122105   
C117     C      0.752410000000     0.208710000000     0.457430000000    -0.0366602  
C118     C      0.783140000000     0.238980000000     0.458130000000    -0.0320144  
C119     C      0.713330000000     0.216210000000     0.475110000000    -0.0127453  
C120     C      0.638970000000     0.193110000000     0.472190000000    -0.121535   
C121     C      0.775340000000     0.277640000000     0.475980000000    -0.0212789  
C122     C      0.848020000000     0.300630000000     0.488810000000    -0.132292   
C123     C      0.736240000000     0.285510000000     0.493100000000    -0.0320625  
C124     C      0.878130000000     0.331370000000     0.488980000000     0.115984   
C125     C      0.830530000000     0.379500000000     0.460300000000     0.208832   
C126     C      0.705670000000     0.255050000000     0.492940000000    -0.0364578  
C127     C      0.681080000000     0.183380000000     0.475880000000     0.0639527  
C128     C      0.807800000000     0.309860000000     0.476320000000     0.0829515  
C129     C      0.801110000000     0.646740000000     0.486420000000    -0.154335   
C130     C      0.666830000000     0.884890000000     0.493420000000     0.113126   
C131     C      0.616700000000     0.831780000000     0.488060000000     0.103846   
C132     C      0.698750000000     0.856040000000     0.492040000000    -0.121414   
C133     C      0.756470000000     0.785350000000     0.515000000000    -0.0367572  
C134     C      0.787040000000     0.754870000000     0.515060000000    -0.0326651  
C135     C      0.723000000000     0.783050000000     0.487320000000    -0.0127273  
C136     C      0.647930000000     0.802110000000     0.486290000000    -0.116535   
C137     C      0.784680000000     0.721600000000     0.487390000000    -0.0199782  
C138     C      0.856970000000     0.694190000000     0.494420000000    -0.122924   
C139     C      0.751930000000     0.720170000000     0.458800000000    -0.0327705  
C140     C      0.884370000000     0.661010000000     0.495510000000     0.0966607  
C141     C      0.828810000000     0.613390000000     0.486720000000     0.19319    
C142     C      0.721350000000     0.750440000000     0.458890000000    -0.0370139  
C143     C      0.689480000000     0.814130000000     0.488490000000     0.0635995  
C144     C      0.814850000000     0.687210000000     0.489500000000     0.0775084  
C145     C      0.190860000000     0.345100000000     0.502740000000    -0.166126   
C146     C      0.327300000000     0.109090000000     0.493080000000     0.102466   
C147     C      0.378310000000     0.161310000000     0.489070000000     0.112857   
C148     C      0.295920000000     0.138420000000     0.489870000000    -0.115818   
C149     C      0.234800000000     0.206560000000     0.505460000000    -0.0367225  
C150     C      0.204170000000     0.236860000000     0.504350000000    -0.0310004  
C151     C      0.272610000000     0.212270000000     0.484550000000    -0.0114334  
C152     C      0.347680000000     0.191560000000     0.486750000000    -0.119685   
C153     C      0.210930000000     0.273870000000     0.483060000000    -0.0225143  
C154     C      0.139060000000     0.300360000000     0.474180000000    -0.133956   
C155     C      0.248320000000     0.279770000000     0.461940000000    -0.031634   
C156     C      0.109900000000     0.331590000000     0.479230000000     0.113576   
C157     C      0.160450000000     0.375050000000     0.510430000000     0.211853   
C158     C      0.278670000000     0.249090000000     0.462240000000    -0.037016   
C159     C      0.305770000000     0.180380000000     0.486780000000     0.0626375  
C160     C      0.180050000000     0.307270000000     0.485420000000     0.0846328  
C161     C      0.146150000000     0.692480000000     0.511320000000    -0.159453   
C162     C      0.385330000000     0.829170000000     0.500880000000     0.0974482  
C163     C      0.332950000000     0.879860000000     0.507080000000     0.0968263  
C164     C      0.355580000000     0.797970000000     0.499780000000    -0.110716   
C165     C      0.288060000000     0.736320000000     0.519260000000    -0.0374548  
C166     C      0.257630000000     0.705730000000     0.518050000000    -0.0310458  
C167     C      0.281230000000     0.774970000000     0.500710000000    -0.00968127 
C168     C      0.302430000000     0.849390000000     0.506510000000    -0.110783   
C169     C      0.219490000000     0.713190000000     0.498650000000    -0.0211963  
C170     C      0.194820000000     0.640330000000     0.491260000000    -0.131591   
C171     C      0.212660000000     0.751610000000     0.479860000000    -0.0312653  
C172     C      0.163300000000     0.611050000000     0.493530000000     0.116836   
C173     C      0.115400000000     0.662190000000     0.515890000000     0.210711   
C174     C      0.243240000000     0.782050000000     0.480660000000    -0.0374857  
C175     C      0.313450000000     0.807800000000     0.502390000000     0.0579833  
C176     C      0.186270000000     0.681650000000     0.499580000000     0.083163   
C177     C      0.811950000000     0.500870000000     0.335110000000    -0.162388   
C178     C      0.670870000000     0.472670000000     0.104500000000     0.105075   
C179     C      0.623900000000     0.485960000000     0.159150000000     0.111865   
C180     C      0.703270000000     0.468050000000     0.132690000000    -0.115607   
C181     C      0.769870000000     0.485670000000     0.196170000000    -0.0367983  
C182     C      0.800920000000     0.486570000000     0.226220000000    -0.0315702  
C183     C      0.730260000000     0.470280000000     0.205690000000    -0.0117964  
C184     C      0.655610000000     0.482090000000     0.188080000000    -0.120439   
C185     C      0.792820000000     0.472590000000     0.266450000000    -0.0220425  
C186     C      0.864410000000     0.466390000000     0.295370000000    -0.133639   
C187     C      0.753920000000     0.455800000000     0.275650000000    -0.0320125  
C188     C      0.892560000000     0.473700000000     0.327270000000     0.11553    
C189     C      0.841430000000     0.510240000000     0.365440000000     0.204967   
C190     C      0.723090000000     0.454290000000     0.245500000000    -0.0370864  
C191     C      0.695970000000     0.473010000000     0.175110000000     0.06284    
C192     C      0.823390000000     0.479040000000     0.299750000000     0.0826439  
C193     C      0.203180000000     0.469830000000     0.364330000000    -0.162707   
C194     C      0.337620000000     0.478590000000     0.122050000000     0.109473   
C195     C      0.391320000000     0.476670000000     0.171810000000     0.108533   
C196     C      0.307790000000     0.476300000000     0.153160000000    -0.121429   
C197     C      0.250790000000     0.451350000000     0.222880000000    -0.0371518  
C198     C      0.220150000000     0.451830000000     0.253400000000    -0.0318091  
C199     C      0.287940000000     0.473360000000     0.228210000000    -0.0122295  
C200     C      0.362190000000     0.474210000000     0.203790000000    -0.119257   
C201     C      0.225880000000     0.474120000000     0.290220000000    -0.0218173  
C202     C      0.151480000000     0.478150000000     0.312070000000    -0.134545   
C203     C      0.263220000000     0.495630000000     0.295920000000    -0.0318873  
C204     C      0.121180000000     0.478220000000     0.342790000000     0.114865   
C205     C      0.172050000000     0.467600000000     0.394790000000     0.210312   
C206     C      0.293820000000     0.495350000000     0.265260000000    -0.0371342  
C207     C      0.319740000000     0.474380000000     0.194730000000     0.0625892  
C208     C      0.193120000000     0.474630000000     0.322650000000     0.0826238  
C209     C      0.338370000000     0.503490000000     0.810800000000    -0.162022   
C210     C      0.100240000000     0.481270000000     0.675250000000     0.0988021  
C211     C      0.154790000000     0.488580000000     0.626710000000     0.113109   
C212     C      0.128700000000     0.480150000000     0.707770000000    -0.112899   
C213     C      0.204050000000     0.455760000000     0.763230000000    -0.0374671  
C214     C      0.235470000000     0.456860000000     0.792960000000    -0.0311328  
C215     C      0.201620000000     0.486650000000     0.732950000000    -0.0116791  
C216     C      0.183860000000     0.488170000000     0.658370000000    -0.121491   
C217     C      0.264590000000     0.489100000000     0.793000000000    -0.0216564  
C218     C      0.293060000000     0.479420000000     0.864460000000    -0.1323     
C219     C      0.260820000000     0.520770000000     0.763580000000    -0.030901   
C220     C      0.325720000000     0.482420000000     0.892440000000     0.116883   
C221     C      0.370040000000     0.508850000000     0.839870000000     0.208414   
C222     C      0.229890000000     0.519380000000     0.733720000000    -0.0374558  
C223     C      0.170890000000     0.484400000000     0.699370000000     0.0632148  
C224     C      0.299230000000     0.489870000000     0.823080000000     0.0833364  
C225     C      0.790750000000     0.507060000000     0.633950000000    -0.152828   
C226     C      0.602270000000     0.493080000000     0.827140000000     0.0912254  
C227     C      0.656670000000     0.492270000000     0.876180000000     0.0908828  
C228     C      0.630890000000     0.492710000000     0.794670000000    -0.110709   
C229     C      0.738010000000     0.464040000000     0.770280000000    -0.0376382  
C230     C      0.768150000000     0.464940000000     0.739250000000    -0.0322056  
C231     C      0.704380000000     0.491440000000     0.769290000000    -0.0103427  
C232     C      0.686030000000     0.491180000000     0.844520000000    -0.111839   
C233     C      0.765750000000     0.493670000000     0.706700000000    -0.0184015  
C234     C      0.840680000000     0.490630000000     0.686120000000    -0.119724   
C235     C      0.731720000000     0.520790000000     0.705610000000    -0.03188    
C236     C      0.871910000000     0.494100000000     0.656560000000     0.0965441  
C237     C      0.823030000000     0.513160000000     0.605310000000     0.202406   
C238     C      0.701290000000     0.519480000000     0.736360000000    -0.0375542  
C239     C      0.673330000000     0.491630000000     0.803190000000     0.0568545  
C240     C      0.799320000000     0.496290000000     0.674980000000     0.0760804  
C241     C      0.694120000000     0.641500000000     0.976960000000    -0.153101   
C242     C      0.830770000000     0.881300000000     0.998080000000     0.0947466  
C243     C      0.882690000000     0.830320000000     0.991270000000     0.0959769  
C244     C      0.799980000000     0.850990000000     0.997680000000    -0.109631   
C245     C      0.738910000000     0.783630000000     0.975890000000    -0.0369237  
C246     C      0.708540000000     0.752900000000     0.975750000000    -0.0323843  
C247     C      0.778130000000     0.776310000000     0.993410000000    -0.00917628 
C248     C      0.852680000000     0.799310000000     0.990100000000    -0.109681   
C249     C      0.716710000000     0.713820000000     0.992570000000    -0.0180313  
C250     C      0.643980000000     0.689290000000     0.003110000000    -0.120176   
C251     C      0.755810000000     0.706230000000     0.009860000000    -0.0329285  
C252     C      0.614120000000     0.658280000000     0.001380000000     0.0981808  
C253     C      0.662950000000     0.611390000000     0.972880000000     0.202178   
C254     C      0.786010000000     0.737160000000     0.010590000000    -0.0375934  
C255     C      0.810600000000     0.809230000000     0.993730000000     0.0566068  
C256     C      0.684660000000     0.680930000000     0.991530000000     0.0774384  
C257     C      0.692770000000     0.345350000000     0.985480000000    -0.160417   
C258     C      0.829750000000     0.110160000000     0.019280000000     0.105998   
C259     C      0.880660000000     0.161890000000     0.009190000000     0.112986   
C260     C      0.798630000000     0.139940000000     0.020130000000    -0.11644    
C261     C      0.745040000000     0.215940000000     0.041310000000    -0.0369572  
C262     C      0.714550000000     0.246310000000     0.038170000000    -0.0310601  
C263     C      0.776150000000     0.212970000000     0.011210000000    -0.0126366  
C264     C      0.850290000000     0.192330000000     0.009280000000    -0.121281   
C265     C      0.714420000000     0.273850000000     0.004570000000    -0.021696   
C266     C      0.641260000000     0.298620000000     0.011340000000    -0.132052   
C267     C      0.745220000000     0.270090000000     0.974090000000    -0.0306633  
C268     C      0.611700000000     0.329580000000     0.007080000000     0.115933   
C269     C      0.662120000000     0.375170000000     0.979000000000     0.209876   
C270     C      0.775920000000     0.240200000000     0.977560000000    -0.0365224  
C271     C      0.808780000000     0.181380000000     0.014260000000     0.0645908  
C272     C      0.682470000000     0.306500000000     0.001090000000     0.0825859  
C273     C      0.304060000000     0.645750000000     0.034010000000    -0.162386   
C274     C      0.164100000000     0.880130000000     0.002930000000     0.113022   
C275     C      0.112680000000     0.829050000000     0.013320000000     0.105135   
C276     C      0.195090000000     0.850370000000     0.004770000000    -0.121002   
C277     C      0.255940000000     0.785730000000     0.032070000000    -0.0364438  
C278     C      0.287000000000     0.755930000000     0.033370000000    -0.0320214  
C279     C      0.217530000000     0.776980000000     0.013560000000    -0.0127594  
C280     C      0.142970000000     0.798550000000     0.015900000000    -0.116642   
C281     C      0.280090000000     0.716610000000     0.016730000000    -0.0215683  
C282     C      0.353010000000     0.694050000000     0.006080000000    -0.126631   
C283     C      0.241720000000     0.707570000000     0.998640000000    -0.0310762  
C284     C      0.383170000000     0.663470000000     0.007090000000     0.104622   
C285     C      0.335500000000     0.616100000000     0.037060000000     0.214187   
C286     C      0.210820000000     0.737530000000     0.996810000000    -0.0357705  
C287     C      0.184790000000     0.808990000000     0.011450000000     0.0638719  
C288     C      0.312770000000     0.684930000000     0.018520000000     0.0828401  
C289     C      0.194760000000     0.144330000000     0.013660000000    -0.159543   
C290     C      0.330460000000     0.384660000000     0.030630000000     0.107429   
C291     C      0.381030000000     0.332430000000     0.023630000000     0.108741   
C292     C      0.299230000000     0.354870000000     0.034370000000    -0.118527   
C293     C      0.236430000000     0.287680000000     0.015330000000    -0.0362639  
C294     C      0.206110000000     0.256780000000     0.014440000000    -0.033146   
C295     C      0.275580000000     0.280340000000     0.033050000000    -0.0120424  
C296     C      0.350570000000     0.301890000000     0.026890000000    -0.11924    
C297     C      0.214070000000     0.217440000000     0.030900000000    -0.0196953  
C298     C      0.140780000000     0.190880000000     0.033270000000    -0.128536   
C299     C      0.252840000000     0.210200000000     0.049260000000    -0.0327015  
C300     C      0.111900000000     0.159370000000     0.026970000000     0.108583   
C301     C      0.165000000000     0.113710000000     0.004890000000     0.210384   
C302     C      0.283040000000     0.241230000000     0.050540000000    -0.0365715  
C303     C      0.308810000000     0.312720000000     0.031870000000     0.0612744  
C304     C      0.182870000000     0.183590000000     0.026950000000     0.0795297  
C305     C      0.692850000000     0.017160000000     0.651150000000    -0.170373   
C306     C      0.830240000000     0.987840000000     0.888560000000     0.0946045  
C307     C      0.880410000000     0.001960000000     0.837020000000     0.098662   
C308     C      0.799010000000     0.987290000000     0.858760000000    -0.108318   
C309     C      0.736950000000     0.012760000000     0.793510000000    -0.0321573  
C310     C      0.706560000000     0.014580000000     0.762920000000    -0.0103137  
C311     C      0.775830000000     0.995260000000     0.785030000000    -0.0147616  
C312     C      0.849960000000     0.001950000000     0.806540000000    -0.095784   
C313     C      0.714500000000     0.999240000000     0.723100000000    -0.0534577  
C314     C      0.641670000000     0.991940000000     0.698660000000    -0.146709   
C315     C      0.753160000000     0.981510000000     0.714600000000    -0.0215484  
C316     C      0.612100000000     0.994940000000     0.667570000000     0.100652   
C317     C      0.662110000000     0.022080000000     0.620820000000     0.217441   
C318     C      0.783440000000     0.979330000000     0.745290000000    -0.0435963  
C319     C      0.808640000000     0.994570000000     0.817160000000     0.0453431  
C320     C      0.682670000000     0.002270000000     0.690370000000     0.114942   
C321     C      0.347730000000     0.004450000000     0.694410000000    -0.142757   
C322     C      0.109750000000     0.996060000000     0.829970000000     0.0857885  
C323     C      0.162250000000     0.002730000000     0.880680000000     0.107454   
C324     C      0.139440000000     0.993030000000     0.798840000000    -0.105892   
C325     C      0.207070000000     0.008420000000     0.736510000000    -0.0263003  
C326     C      0.237640000000     0.005940000000     0.706140000000    -0.020871   
C327     C      0.213720000000     0.991520000000     0.776020000000    -0.0187627  
C328     C      0.192720000000     0.000490000000     0.850250000000    -0.100862   
C329     C      0.275700000000     0.987080000000     0.714830000000    -0.0290344  
C330     C      0.302200000000     0.975780000000     0.643260000000    -0.122492   
C331     C      0.282370000000     0.969780000000     0.753980000000    -0.0322001  
C332     C      0.333720000000     0.979240000000     0.614110000000     0.100718   
C333     C      0.378100000000     0.010400000000     0.663980000000     0.210046   
C334     C      0.251570000000     0.971630000000     0.784170000000    -0.037555   
C335     C      0.181580000000     0.995040000000     0.808740000000     0.0470515  
C336     C      0.309290000000     0.987970000000     0.683930000000     0.0689893  
C337     C      0.299620000000     0.005990000000     0.349310000000    -0.146301   
C338     C      0.164940000000     0.009180000000     0.110600000000     0.115504   
C339     C      0.114050000000     0.011520000000     0.163340000000     0.113122   
C340     C      0.196360000000     0.007960000000     0.140090000000    -0.119164   
C341     C      0.257510000000     0.024240000000     0.209050000000    -0.0475625  
C342     C      0.288160000000     0.020910000000     0.239290000000    -0.0117253  
C343     C      0.219300000000     0.004120000000     0.214020000000     0.00715352 
C344     C      0.144730000000     0.010650000000     0.193640000000    -0.117453   
C345     C      0.281090000000     0.997660000000     0.275200000000    -0.037594   
C346     C      0.353890000000     0.991910000000     0.300780000000    -0.128398   
C347     C      0.243230000000     0.977040000000     0.279940000000    -0.0228694  
C348     C      0.382450000000     0.994010000000     0.332970000000     0.098918   
C349     C      0.329120000000     0.010880000000     0.380740000000     0.207362   
C350     C      0.212720000000     0.980070000000     0.249590000000    -0.0577967  
C351     C      0.186440000000     0.007910000000     0.182210000000     0.060668   
C352     C      0.311930000000     0.997310000000     0.308950000000     0.0713956  
C353     C      0.799590000000     0.995320000000     0.151000000000    -0.175936   
C354     C      0.662730000000     0.022230000000     0.388440000000     0.111524   
C355     C      0.612370000000     0.014510000000     0.335790000000     0.11224    
C356     C      0.694110000000     0.024760000000     0.358900000000    -0.118059   
C357     C      0.755560000000     0.999250000000     0.293360000000    -0.0496873  
C358     C      0.786190000000     0.996120000000     0.263060000000    -0.0410614  
C359     C      0.718140000000     0.019860000000     0.285120000000     0.000553602
C360     C      0.643060000000     0.016590000000     0.305430000000    -0.118364   
C361     C      0.780110000000     0.013280000000     0.223660000000    -0.0140546  
C362     C      0.853700000000     0.011360000000     0.199120000000    -0.138004   
C363     C      0.743060000000     0.034460000000     0.215530000000    -0.0299544  
C364     C      0.882700000000     0.004880000000     0.167860000000     0.1272     
C365     C      0.829420000000     0.986670000000     0.120570000000     0.208868   
C366     C      0.712490000000     0.037840000000     0.245940000000    -0.0392337  
C367     C      0.684680000000     0.021020000000     0.316790000000     0.0614169  
C368     C      0.811550000000     0.007520000000     0.190650000000     0.0964756  
C369     C      0.986410000000     0.347050000000     0.697420000000    -0.172082   
C370     C      0.012700000000     0.112130000000     0.834330000000     0.0993372  
C371     C      0.002510000000     0.163730000000     0.885230000000     0.116665   
C372     C      0.015320000000     0.141960000000     0.803530000000    -0.108872   
C373     C      0.992430000000     0.207170000000     0.741970000000    -0.0473128  
C374     C      0.991320000000     0.237300000000     0.711300000000    -0.0371925  
C375     C      0.010550000000     0.215520000000     0.780620000000     0.00098692 
C376     C      0.004320000000     0.194390000000     0.855040000000    -0.107096   
C377     C      0.007770000000     0.276570000000     0.718800000000    -0.0167157  
C378     C      0.014450000000     0.301270000000     0.646190000000    -0.137165   
C379     C      0.026100000000     0.285060000000     0.757180000000    -0.0293722  
C380     C      0.008770000000     0.331730000000     0.616480000000     0.127162   
C381     C      0.978560000000     0.376400000000     0.666550000000     0.208211   
C382     C      0.027750000000     0.254710000000     0.787730000000    -0.0393634  
C383     C      0.010490000000     0.183650000000     0.813530000000     0.0569841  
C384     C      0.003880000000     0.309090000000     0.687200000000     0.0951734  
C385     C      0.977030000000     0.851240000000     0.802240000000    -0.152102   
C386     C      0.989480000000     0.610270000000     0.664880000000     0.0901946  
C387     C      0.983610000000     0.661320000000     0.612910000000     0.0907393  
C388     C      0.989830000000     0.640620000000     0.695670000000    -0.107632   
C389     C      0.016010000000     0.713920000000     0.750020000000    -0.0292587  
C390     C      0.016540000000     0.744840000000     0.780350000000    -0.0227022  
C391     C      0.987190000000     0.715080000000     0.717450000000    -0.0175787  
C392     C      0.983230000000     0.692430000000     0.642990000000    -0.109093   
C393     C      0.987910000000     0.777590000000     0.779250000000    -0.0283127  
C394     C      0.997650000000     0.801700000000     0.853060000000    -0.128846   
C395     C      0.958800000000     0.778320000000     0.746770000000    -0.0302981  
C396     C      0.996890000000     0.832820000000     0.883050000000     0.0934927  
C397     C      0.973810000000     0.881530000000     0.833320000000     0.197508   
C398     C      0.958670000000     0.747730000000     0.716190000000    -0.037338   
C399     C      0.986760000000     0.682340000000     0.684990000000     0.0564626  
C400     C      0.988130000000     0.810630000000     0.811800000000     0.0790914  
C401     C      0.027390000000     0.641740000000     0.303380000000    -0.159979   
C402     C      0.998470000000     0.877490000000     0.165020000000     0.104838   
C403     C      0.008600000000     0.826840000000     0.113060000000     0.10615    
C404     C      0.999390000000     0.847290000000     0.195610000000    -0.130902   
C405     C      0.975870000000     0.771530000000     0.246860000000    -0.0435519  
C406     C      0.977420000000     0.741220000000     0.277400000000    -0.0415331  
C407     C      0.006980000000     0.773850000000     0.216720000000    -0.00647528 
C408     C      0.010360000000     0.795940000000     0.142950000000    -0.118927   
C409     C      0.010430000000     0.713010000000     0.278700000000    -0.00949233 
C410     C      0.000830000000     0.690900000000     0.352160000000    -0.117857   
C411     C      0.041610000000     0.715570000000     0.248460000000    -0.0336269  
C412     C      0.002290000000     0.660760000000     0.382690000000     0.115733   
C413     C      0.030890000000     0.612500000000     0.335150000000     0.213775   
C414     C      0.039720000000     0.745520000000     0.217590000000    -0.0362362  
C415     C      0.005500000000     0.806090000000     0.184650000000     0.0724008  
C416     C      0.012490000000     0.681330000000     0.311720000000     0.0775792  
C417     C      0.012560000000     0.139950000000     0.199860000000    -0.161106   
C418     C      0.028870000000     0.380470000000     0.336120000000     0.109401   
C419     C      0.020740000000     0.329030000000     0.387410000000     0.109338   
C420     C      0.032150000000     0.350220000000     0.305320000000    -0.118316   
C421     C      0.055610000000     0.276560000000     0.249460000000    -0.0379929  
C422     C      0.054410000000     0.245660000000     0.219040000000    -0.0326962  
C423     C      0.027960000000     0.275790000000     0.283080000000    -0.00307902 
C424     C      0.023580000000     0.298100000000     0.357420000000    -0.118133   
C425     C      0.025340000000     0.213390000000     0.221380000000    -0.0115151  
C426     C      0.028680000000     0.189130000000     0.147130000000    -0.127277   
C427     C      0.997370000000     0.213200000000     0.254780000000    -0.040168   
C428     C      0.023130000000     0.158260000000     0.117360000000     0.109618   
C429     C      0.004190000000     0.110100000000     0.169410000000     0.218741   
C430     C      0.998820000000     0.243740000000     0.285210000000    -0.0457692  
C431     C      0.028590000000     0.308430000000     0.315640000000     0.0609053  
C432     C      0.023260000000     0.180310000000     0.189080000000     0.0797993  
H1       H      0.968150000000     0.965980000000     0.031010000000    -1.24335    
H2       H      0.022240000000     0.020150000000     0.024690000000    -1.04233    
H3       H      0.959280000000     0.066320000000     0.964750000000    -0.493327   
H4       H      0.066290000000     0.958720000000     0.961660000000    -0.53631    
H5       H      0.970070000000     0.524780000000     0.466270000000    -1.24417    
H6       H      0.022980000000     0.470360000000     0.476960000000    -1.09963    
H7       H      0.954960000000     0.426110000000     0.533260000000    -0.510649   
H8       H      0.063730000000     0.531950000000     0.541860000000    -0.562652   
H9       H      0.468250000000     0.966340000000     0.469700000000    -1.24112    
H10      H      0.521500000000     0.021180000000     0.475730000000    -1.08303    
H11      H      0.567610000000     0.960330000000     0.538250000000    -0.50981    
H12      H      0.458770000000     0.065940000000     0.536770000000    -0.565853   
H13      H      0.524150000000     0.464740000000     0.969030000000    -1.24842    
H14      H      0.473540000000     0.471800000000     0.026220000000    -1.08905    
H15      H      0.426050000000     0.534900000000     0.967590000000    -0.541562   
H16      H      0.539840000000     0.531670000000     0.067650000000    -0.535066   
H17      H      0.515540000000     0.170820000000     0.415670000000     0.0124163  
H18      H      0.472250000000     0.324310000000     0.085730000000     0.00990895 
H19      H      0.556210000000     0.246410000000     0.300460000000     0.0352384  
H20      H      0.442750000000     0.240500000000     0.197250000000     0.0333151  
H21      H      0.473310000000     0.269710000000     0.136410000000     0.0571075  
H22      H      0.448800000000     0.186160000000     0.249360000000     0.0360126  
H23      H      0.512480000000     0.356210000000     0.229000000000     0.0672077  
H24      H      0.513120000000     0.223300000000     0.362320000000     0.0553179  
H25      H      0.499770000000     0.128520000000     0.269980000000     0.0565041  
H26      H      0.551450000000     0.299620000000     0.247810000000     0.0330172  
H27      H      0.502780000000     0.076600000000     0.323810000000     0.0125308  
H28      H      0.535870000000     0.420380000000     0.208620000000     0.0810703  
H29      H      0.541960000000     0.434120000000     0.156660000000     0.105375   
H30      H      0.512490000000     0.578410000000     0.176380000000     0.00955044 
H31      H      0.528360000000     0.824090000000     0.416310000000     0.0157552  
H32      H      0.478260000000     0.676360000000     0.268380000000     0.0348406  
H33      H      0.541810000000     0.812200000000     0.238050000000     0.0336636  
H34      H      0.534980000000     0.770670000000     0.364690000000     0.0583917  
H35      H      0.541610000000     0.759030000000     0.184630000000     0.0350899  
H36      H      0.479260000000     0.850160000000     0.274450000000     0.0673537  
H37      H      0.518050000000     0.629740000000     0.229910000000     0.0548383  
H38      H      0.495980000000     0.724850000000     0.139130000000     0.0544171  
H39      H      0.480300000000     0.728970000000     0.321980000000     0.034172   
H40      H      0.492520000000     0.672730000000     0.085880000000     0.01771    
H41      H      0.447790000000     0.911310000000     0.296960000000     0.0807037  
H42      H      0.444060000000     0.924370000000     0.349700000000     0.097057   
H43      H      0.498330000000     0.821870000000     0.583840000000     0.0189488  
H44      H      0.477590000000     0.668460000000     0.916640000000     0.0184376  
H45      H      0.544640000000     0.747360000000     0.695340000000     0.0365246  
H46      H      0.439370000000     0.748510000000     0.806910000000     0.0340837  
H47      H      0.474800000000     0.722200000000     0.865270000000     0.05582    
H48      H      0.438550000000     0.802580000000     0.754250000000     0.0364714  
H49      H      0.515310000000     0.636030000000     0.772800000000     0.0647665  
H50      H      0.496970000000     0.768950000000     0.636680000000     0.0541076  
H51      H      0.484310000000     0.862760000000     0.730070000000     0.0533952  
H52      H      0.546820000000     0.694520000000     0.748520000000     0.0337401  
H53      H      0.486160000000     0.915260000000     0.676590000000     0.0201378  
H54      H      0.542570000000     0.573080000000     0.794370000000     0.0847147  
H55      H      0.548540000000     0.560710000000     0.847030000000     0.115475   
H56      H      0.495920000000     0.173230000000     0.582810000000     0.00949789 
H57      H      0.505780000000     0.323940000000     0.913870000000     0.0064028  
H58      H      0.442030000000     0.242210000000     0.694520000000     0.0364663  
H59      H      0.550230000000     0.252730000000     0.802800000000     0.0338793  
H60      H      0.510170000000     0.271250000000     0.861930000000     0.0587219  
H61      H      0.555450000000     0.199100000000     0.750010000000     0.0368759  
H62      H      0.463720000000     0.356370000000     0.771170000000     0.0677279  
H63      H      0.494700000000     0.226720000000     0.635000000000     0.0560761  
H64      H      0.510290000000     0.134520000000     0.729640000000     0.0558723  
H65      H      0.435560000000     0.294560000000     0.748010000000     0.0334104  
H66      H      0.510980000000     0.081390000000     0.676880000000     0.0177866  
H67      H      0.434260000000     0.418140000000     0.794170000000     0.0873872  
H68      H      0.430160000000     0.430670000000     0.846960000000     0.120467   
H69      H      0.576970000000     0.171200000000     0.472660000000     0.013274   
H70      H      0.908270000000     0.322890000000     0.500980000000     0.00767809 
H71      H      0.676310000000     0.261790000000     0.507560000000     0.0347419  
H72      H      0.812860000000     0.232370000000     0.444140000000     0.0335884  
H73      H      0.855960000000     0.270010000000     0.499550000000     0.0584058  
H74      H      0.759260000000     0.179560000000     0.442660000000     0.0345966  
H75      H      0.768530000000     0.356570000000     0.450470000000     0.0676094  
H76      H      0.628940000000     0.224510000000     0.466980000000     0.0546707  
H77      H      0.724070000000     0.132810000000     0.484850000000     0.0546521  
H78      H      0.729570000000     0.315000000000     0.507300000000     0.0348448  
H79      H      0.671650000000     0.080210000000     0.488390000000     0.0112115  
H80      H      0.792720000000     0.420620000000     0.427260000000     0.086439   
H81      H      0.845600000000     0.433370000000     0.426780000000     0.118807   
H82      H      0.584960000000     0.821130000000     0.486510000000     0.0150026  
H83      H      0.916660000000     0.669020000000     0.499620000000     0.0169603  
H84      H      0.696380000000     0.748350000000     0.436650000000     0.0350474  
H85      H      0.811710000000     0.756630000000     0.537650000000     0.0336222  
H86      H      0.868960000000     0.725270000000     0.496910000000     0.055277   
H87      H      0.758370000000     0.810060000000     0.537450000000     0.0350277  
H88      H      0.768210000000     0.640920000000     0.483430000000     0.0644529  
H89      H      0.639500000000     0.769880000000     0.483870000000     0.0550028  
H90      H      0.730510000000     0.866590000000     0.493340000000     0.054631   
H91      H      0.749760000000     0.695380000000     0.436470000000     0.0330009  
H92      H      0.675580000000     0.917020000000     0.496180000000     0.00852626 
H93      H      0.779110000000     0.572580000000     0.478000000000     0.0791503  
H94      H      0.825420000000     0.547110000000     0.477930000000     0.110368   
H95      H      0.410230000000     0.171530000000     0.488600000000     0.00889154 
H96      H      0.078830000000     0.325240000000     0.468340000000     0.0142465  
H97      H      0.306860000000     0.254370000000     0.444980000000     0.0348869  
H98      H      0.175730000000     0.232000000000     0.521390000000     0.035156   
H99      H      0.129660000000     0.271090000000     0.461070000000     0.0598376  
H100     H      0.229120000000     0.179200000000     0.523720000000     0.0359592  
H101     H      0.222240000000     0.349860000000     0.513600000000     0.0680729  
H102     H      0.357050000000     0.223570000000     0.485530000000     0.0547693  
H103     H      0.264130000000     0.127960000000     0.489630000000     0.0548444  
H104     H      0.254040000000     0.308150000000     0.445250000000     0.033782   
H105     H      0.317970000000     0.077230000000     0.496730000000     0.0121928  
H106     H      0.201420000000     0.411240000000     0.545450000000     0.0811345  
H107     H      0.149160000000     0.425220000000     0.550900000000     0.106488   
H108     H      0.322800000000     0.911550000000     0.510160000000     0.0170956  
H109     H      0.171250000000     0.579710000000     0.484980000000     0.00800332 
H110     H      0.237130000000     0.811050000000     0.465270000000     0.0352722  
H111     H      0.263500000000     0.676610000000     0.533330000000     0.0340388  
H112     H      0.225610000000     0.630720000000     0.482180000000     0.0583859  
H113     H      0.316590000000     0.729890000000     0.535560000000     0.0358411  
H114     H      0.139570000000     0.724080000000     0.520060000000     0.0687494  
H115     H      0.270360000000     0.858520000000     0.509610000000     0.0533379  
H116     H      0.365700000000     0.766380000000     0.496050000000     0.0538829  
H117     H      0.183670000000     0.758040000000     0.464340000000     0.0349671  
H118     H      0.417450000000     0.819940000000     0.498310000000     0.0184054  
H119     H      0.074130000000     0.704070000000     0.543360000000     0.0879493  
H120     H      0.059580000000     0.652160000000     0.548900000000     0.112291   
H121     H      0.593340000000     0.493430000000     0.170750000000     0.00549561 
H122     H      0.923510000000     0.461270000000     0.323710000000     0.00464516 
H123     H      0.693380000000     0.441210000000     0.253680000000     0.0339578  
H124     H      0.830620000000     0.500040000000     0.218590000000     0.0336393  
H125     H      0.874390000000     0.449980000000     0.267960000000     0.0581598  
H126     H      0.776460000000     0.498700000000     0.166080000000     0.0352152  
H127     H      0.780900000000     0.513300000000     0.337580000000     0.0671288  
H128     H      0.648500000000     0.487160000000     0.220390000000     0.054209   
H129     H      0.733780000000     0.460410000000     0.121200000000     0.0554254  
H130     H      0.747150000000     0.444520000000     0.306440000000     0.0330775  
H131     H      0.677980000000     0.468510000000     0.072010000000     0.0191724  
H132     H      0.801850000000     0.551700000000     0.395760000000     0.0841751  
H133     H      0.854280000000     0.554190000000     0.411530000000     0.0974395  
H134     H      0.423760000000     0.476720000000     0.180330000000     0.0151889  
H135     H      0.089650000000     0.482530000000     0.332250000000     0.00797421 
H136     H      0.321700000000     0.513160000000     0.270260000000     0.0347015  
H137     H      0.192120000000     0.434260000000     0.248350000000     0.0332381  
H138     H      0.142190000000     0.481900000000     0.280120000000     0.0570421  
H139     H      0.245430000000     0.433410000000     0.195160000000     0.0348126  
H140     H      0.235210000000     0.464870000000     0.372960000000     0.0670136  
H141     H      0.372980000000     0.472060000000     0.235410000000     0.0549164  
H142     H      0.275440000000     0.477070000000     0.144500000000     0.0540803  
H143     H      0.268470000000     0.513400000000     0.323780000000     0.033424   
H144     H      0.326540000000     0.480510000000     0.090480000000     0.0122508  
H145     H      0.215220000000     0.451620000000     0.440580000000     0.0832132  
H146     H      0.163760000000     0.442880000000     0.454720000000     0.123901   
H147     H      0.166370000000     0.492020000000     0.595450000000     0.0071497  
H148     H      0.319700000000     0.472600000000     0.923930000000     0.00729469 
H149     H      0.228100000000     0.543910000000     0.711060000000     0.0369875  
H150     H      0.237610000000     0.431960000000     0.815150000000     0.0336206  
H151     H      0.263080000000     0.469270000000     0.875390000000     0.0587775  
H152     H      0.182510000000     0.430180000000     0.763060000000     0.0364964  
H153     H      0.343740000000     0.512290000000     0.778920000000     0.0670228  
H154     H      0.216390000000     0.491050000000     0.650800000000     0.055427   
H155     H      0.117720000000     0.477180000000     0.739270000000     0.0566134  
H156     H      0.281860000000     0.546750000000     0.763510000000     0.0340967  
H157     H      0.067710000000     0.478570000000     0.682940000000     0.0207327  
H158     H      0.408020000000     0.539320000000     0.796880000000     0.0859273  
H159     H      0.424370000000     0.544620000000     0.848400000000     0.111911   
H160     H      0.668220000000     0.492180000000     0.907600000000     0.0106005  
H161     H      0.903140000000     0.488500000000     0.667270000000     0.0146008  
H162     H      0.675950000000     0.541290000000     0.735050000000     0.0352373  
H163     H      0.793370000000     0.443040000000     0.740840000000     0.0333916  
H164     H      0.849240000000     0.483790000000     0.717750000000     0.0550126  
H165     H      0.740920000000     0.441740000000     0.795030000000     0.0350888  
H166     H      0.759150000000     0.513090000000     0.624580000000     0.065519   
H167     H      0.718580000000     0.490690000000     0.852440000000     0.0521036  
H168     H      0.619810000000     0.492670000000     0.763060000000     0.0529586  
H169     H      0.729060000000     0.543950000000     0.681670000000     0.033588   
H170     H      0.569760000000     0.493150000000     0.818990000000     0.0151972  
H171     H      0.783020000000     0.539650000000     0.561610000000     0.0860303  
H172     H      0.836130000000     0.548670000000     0.552750000000     0.119186   
H173     H      0.914730000000     0.820870000000     0.988470000000     0.0183533  
H174     H      0.583570000000     0.666270000000     0.012650000000     0.0199508  
H175     H      0.815380000000     0.730390000000     0.025150000000     0.0348124  
H176     H      0.678850000000     0.759450000000     0.961680000000     0.0351188  
H177     H      0.635370000000     0.719510000000     0.014470000000     0.0572051  
H178     H      0.731730000000     0.812920000000     0.961570000000     0.0353402  
H179     H      0.725090000000     0.635140000000     0.965770000000     0.0667065  
H180     H      0.862630000000     0.767720000000     0.985960000000     0.0534286  
H181     H      0.768060000000     0.860440000000     0.001140000000     0.0513841  
H182     H      0.762840000000     0.676500000000     0.023390000000     0.0350196  
H183     H      0.820830000000     0.913040000000     0.001150000000     0.0126996  
H184     H      0.702230000000     0.571500000000     0.940080000000     0.0856201  
H185     H      0.649410000000     0.558540000000     0.937340000000     0.115279   
H186     H      0.912390000000     0.171730000000     0.004720000000     0.00845483 
H187     H      0.580520000000     0.322440000000     0.017180000000     0.00643411 
H188     H      0.799190000000     0.237960000000     0.953560000000     0.0363248  
H189     H      0.691490000000     0.248610000000     0.062350000000     0.0341155  
H190     H      0.631740000000     0.268670000000     0.022650000000     0.0583875  
H191     H      0.744760000000     0.195250000000     0.067600000000     0.0364272  
H192     H      0.724350000000     0.351980000000     0.976440000000     0.0672335  
H193     H      0.859210000000     0.224250000000     0.005110000000     0.05562    
H194     H      0.766730000000     0.130450000000     0.024010000000     0.0573253  
H195     H      0.745440000000     0.289950000000     0.947190000000     0.0330464  
H196     H      0.820530000000     0.078270000000     0.023180000000     0.0209952  
H197     H      0.702750000000     0.413810000000     0.946240000000     0.0844879  
H198     H      0.650150000000     0.427200000000     0.941520000000     0.105091   
H199     H      0.080730000000     0.819590000000     0.017090000000     0.016611   
H200     H      0.413370000000     0.671480000000     0.994890000000     0.0152908  
H201     H      0.181940000000     0.729930000000     0.981680000000     0.0358166  
H202     H      0.316210000000     0.763380000000     0.047980000000     0.0339763  
H203     H      0.360850000000     0.724310000000     0.994270000000     0.0586642  
H204     H      0.261920000000     0.815470000000     0.046030000000     0.0342538  
H205     H      0.273470000000     0.639120000000     0.046060000000     0.0683351  
H206     H      0.133560000000     0.767080000000     0.021850000000     0.0553553  
H207     H      0.226910000000     0.859840000000     0.000350000000     0.0543686  
H208     H      0.235880000000     0.677490000000     0.985310000000     0.0354377  
H209     H      0.173620000000     0.911710000000     0.997560000000     0.00784298 
H210     H      0.298020000000     0.575770000000     0.071440000000     0.0833742  
H211     H      0.350840000000     0.562390000000     0.071060000000     0.106269   
H212     H      0.412650000000     0.322230000000     0.019170000000     0.0102556  
H213     H      0.079910000000     0.166860000000     0.033390000000     0.0134666  
H214     H      0.312310000000     0.234420000000     0.065280000000     0.0343013  
H215     H      0.176850000000     0.263310000000     0.999510000000     0.0348156  
H216     H      0.130070000000     0.220810000000     0.043520000000     0.0568374  
H217     H      0.229470000000     0.316950000000     0.000860000000     0.0344347  
H218     H      0.227030000000     0.138590000000     0.006530000000     0.0671626  
H219     H      0.359820000000     0.269950000000     0.024240000000     0.0543971  
H220     H      0.267700000000     0.365040000000     0.039170000000     0.05388    
H221     H      0.259870000000     0.180430000000     0.062680000000     0.0340614  
H222     H      0.321280000000     0.416740000000     0.032310000000     0.0132537  
H223     H      0.209730000000     0.075030000000     0.978160000000     0.0830102  
H224     H      0.158680000000     0.061010000000     0.966470000000     0.104932   
H225     H      0.911840000000     0.008340000000     0.827250000000     0.0183107  
H226     H      0.581140000000     0.984560000000     0.675230000000     0.0144521  
H227     H      0.812750000000     0.964960000000     0.737890000000     0.0337337  
H228     H      0.677150000000     0.028880000000     0.770130000000     0.0320133  
H229     H      0.632610000000     0.980440000000     0.728770000000     0.0613156  
H230     H      0.730260000000     0.025960000000     0.823520000000     0.0387397  
H231     H      0.724160000000     0.027490000000     0.645020000000     0.0730516  
H232     H      0.858800000000     0.008530000000     0.774930000000     0.0534196  
H233     H      0.767570000000     0.980830000000     0.868320000000     0.0511309  
H234     H      0.759850000000     0.969000000000     0.684270000000     0.0283439  
H235     H      0.821370000000     0.981890000000     0.920330000000     0.0187012  
H236     H      0.702430000000     0.053610000000     0.580880000000     0.0844149  
H237     H      0.649980000000     0.056710000000     0.566550000000     0.106318   
H238     H      0.172420000000     0.006460000000     0.912380000000     0.00849797 
H239     H      0.327210000000     0.967630000000     0.583340000000     0.0178231  
H240     H      0.257490000000     0.957430000000     0.813870000000     0.0333228  
H241     H      0.232070000000     0.020060000000     0.676300000000     0.0363109  
H242     H      0.272580000000     0.963090000000     0.634120000000     0.0559394  
H243     H      0.178680000000     0.024560000000     0.729240000000     0.0371831  
H244     H      0.352740000000     0.016050000000     0.725460000000     0.0680855  
H245     H      0.224830000000     0.003260000000     0.859380000000     0.0540099  
H246     H      0.129240000000     0.988310000000     0.767310000000     0.0515034  
H247     H      0.311490000000     0.954900000000     0.761230000000     0.0331596  
H248     H      0.077570000000     0.993930000000     0.820790000000     0.0211546  
H249     H      0.415330000000     0.045260000000     0.704160000000     0.0888769  
H250     H      0.429420000000     0.049310000000     0.651850000000     0.117179   
H251     H      0.082170000000     0.012960000000     0.173650000000     0.0165047  
H252     H      0.414480000000     0.988460000000     0.324850000000     0.00551397 
H253     H      0.184030000000     0.963410000000     0.253970000000     0.0374008  
H254     H      0.316860000000     0.037660000000     0.235200000000     0.0319386  
H255     H      0.364610000000     0.985560000000     0.269690000000     0.0529888  
H256     H      0.263430000000     0.043400000000     0.182290000000     0.0384081  
H257     H      0.267370000000     0.012740000000     0.355600000000     0.0684295  
H258     H      0.135690000000     0.011860000000     0.225860000000     0.0581474  
H259     H      0.228150000000     0.005720000000     0.129790000000     0.0566343  
H260     H      0.237180000000     0.958650000000     0.307240000000     0.0298769  
H261     H      0.174150000000     0.008260000000     0.078380000000     0.0165859  
H262     H      0.284760000000     0.034280000000     0.422030000000     0.0875623  
H263     H      0.336290000000     0.044020000000     0.436180000000     0.121472   
H264     H      0.580750000000     0.010200000000     0.325490000000     0.0135703  
H265     H      0.914820000000     0.009540000000     0.175980000000     0.000782589
H266     H      0.684410000000     0.054530000000     0.238700000000     0.0363442  
H267     H      0.814130000000     0.979070000000     0.270090000000     0.0312486  
H268     H      0.864320000000     0.020210000000     0.229620000000     0.0603307  
H269     H      0.760760000000     0.984340000000     0.322850000000     0.0339361  
H270     H      0.767180000000     0.989500000000     0.144620000000     0.0675556  
H271     H      0.634210000000     0.013290000000     0.273320000000     0.056612   
H272     H      0.725680000000     0.029280000000     0.369160000000     0.0564341  
H273     H      0.737710000000     0.048410000000     0.185580000000     0.0357906  
H274     H      0.671730000000     0.024700000000     0.420630000000     0.0161319  
H275     H      0.785030000000     0.961560000000     0.080340000000     0.0831717  
H276     H      0.836510000000     0.950490000000     0.066550000000     0.104375   
H277     H      0.997200000000     0.173370000000     0.916880000000     0.00298402 
H278     H      0.019340000000     0.324780000000     0.585420000000     0.00951553 
H279     H      0.042560000000     0.261980000000     0.816860000000     0.0373327  
H280     H      0.976430000000     0.230280000000     0.682130000000     0.0334111  
H281     H      0.027780000000     0.271960000000     0.637220000000     0.0623781  
H282     H      0.978090000000     0.177690000000     0.735650000000     0.0361414  
H283     H      0.975880000000     0.352510000000     0.728790000000     0.0684508  
H284     H      0.999860000000     0.226180000000     0.864190000000     0.0458649  
H285     H      0.021160000000     0.132240000000     0.772040000000     0.0569072  
H286     H      0.039180000000     0.315160000000     0.763470000000     0.0355777  
H287     H      0.016450000000     0.080250000000     0.824980000000     0.0222838  
H288     H      0.944030000000     0.413770000000     0.706870000000     0.0851932  
H289     H      0.938640000000     0.426490000000     0.654170000000     0.11049    
H290     H      0.981240000000     0.670760000000     0.580850000000     0.0147521  
H291     H      0.006070000000     0.824090000000     0.914080000000     0.0252196  
H292     H      0.935650000000     0.749230000000     0.691900000000     0.035518   
H293     H      0.039840000000     0.743290000000     0.804330000000     0.0342756  
H294     H      0.005570000000     0.770670000000     0.862470000000     0.0644883  
H295     H      0.038700000000     0.689410000000     0.751680000000     0.0374659  
H296     H      0.968810000000     0.859220000000     0.770770000000     0.0643773  
H297     H      0.980960000000     0.724300000000     0.633290000000     0.0514395  
H298     H      0.992100000000     0.631360000000     0.727770000000     0.0525038  
H299     H      0.935470000000     0.802190000000     0.745170000000     0.0327227  
H300     H      0.992020000000     0.578480000000     0.674850000000     0.0198121  
H301     H      0.945860000000     0.923650000000     0.792630000000     0.0837326  
H302     H      0.941420000000     0.936830000000     0.845140000000     0.113219   
H303     H      0.012390000000     0.817650000000     0.081060000000     0.0172709  
H304     H      0.990980000000     0.669370000000     0.413050000000     0.00478467 
H305     H      0.064310000000     0.747090000000     0.194880000000     0.0362102  
H306     H      0.952540000000     0.739700000000     0.299760000000     0.0340322  
H307     H      0.990290000000     0.721520000000     0.360320000000     0.0498043  
H308     H      0.950100000000     0.792860000000     0.246480000000     0.0352071  
H309     H      0.037780000000     0.633880000000     0.272520000000     0.0673456  
H310     H      0.014980000000     0.764250000000     0.133450000000     0.0573438  
H311     H      0.995860000000     0.856190000000     0.227700000000     0.0546607  
H312     H      0.067930000000     0.694940000000     0.249000000000     0.0345396  
H313     H      0.993750000000     0.909070000000     0.174890000000     0.0053379  
H314     H      0.063940000000     0.571270000000     0.297450000000     0.082017   
H315     H      0.064740000000     0.558650000000     0.350410000000     0.100443   
H316     H      0.016070000000     0.319340000000     0.419130000000     0.0140124  
H317     H      0.028280000000     0.166980000000     0.085480000000     0.0131145  
H318     H      0.976420000000     0.242680000000     0.310080000000     0.0349865  
H319     H      0.076600000000     0.246800000000     0.194000000000     0.0340009  
H320     H      0.036410000000     0.220000000000     0.137030000000     0.0573169  
H321     H      0.078580000000     0.300730000000     0.246970000000     0.0356331  
H322     H      0.007820000000     0.132190000000     0.232100000000     0.0702136  
H323     H      0.021430000000     0.266180000000     0.366970000000     0.0566502  
H324     H      0.035980000000     0.359670000000     0.273440000000     0.0552438  
H325     H      0.973630000000     0.189790000000     0.257180000000     0.0330222  
H326     H      0.030900000000     0.412400000000     0.326480000000     0.013241   
H327     H      0.980330000000     0.068950000000     0.213570000000     0.0795402  
H328     H      0.967130000000     0.056660000000     0.162520000000     0.0998974  
N1       N      0.494370000000     0.371640000000     0.126730000000    -0.283132   
N2       N      0.508790000000     0.119740000000     0.373940000000    -0.268498   
N3       N      0.527770000000     0.414680000000     0.177860000000    -0.227322   
N4       N      0.499410000000     0.868160000000     0.375840000000    -0.272399   
N5       N      0.502210000000     0.621710000000     0.127100000000    -0.250047   
N6       N      0.458470000000     0.906610000000     0.327100000000    -0.227463   
N7       N      0.499750000000     0.621220000000     0.875550000000    -0.24526    
N8       N      0.492710000000     0.872710000000     0.626090000000    -0.228092   
N9       N      0.534120000000     0.579030000000     0.824990000000    -0.225549   
N10      N      0.481400000000     0.370760000000     0.873420000000    -0.274301   
N11      N      0.503070000000     0.123290000000     0.625960000000    -0.251283   
N12      N      0.443930000000     0.412350000000     0.824450000000    -0.227572   
N13      N      0.869420000000     0.370990000000     0.476450000000    -0.271768   
N14      N      0.620260000000     0.121740000000     0.481490000000    -0.267639   
N15      N      0.822440000000     0.414400000000     0.438380000000    -0.227849   
N16      N      0.871330000000     0.620600000000     0.491700000000    -0.251343   
N17      N      0.626080000000     0.872880000000     0.491740000000    -0.256645   
N18      N      0.811190000000     0.575460000000     0.481030000000    -0.227224   
N19      N      0.120360000000     0.369110000000     0.496120000000    -0.285509   
N20      N      0.368230000000     0.120290000000     0.491940000000    -0.25771    
N21      N      0.170860000000     0.406960000000     0.535780000000    -0.229614   
N22      N      0.123590000000     0.621740000000     0.504440000000    -0.270783   
N23      N      0.374130000000     0.869910000000     0.503970000000    -0.236288   
N24      N      0.079910000000     0.673290000000     0.535740000000    -0.226238   
N25      N      0.880770000000     0.493750000000     0.362810000000    -0.275623   
N26      N      0.631470000000     0.481580000000     0.117630000000    -0.25798    
N27      N      0.831680000000     0.539380000000     0.394000000000    -0.227135   
N28      N      0.130840000000     0.474510000000     0.384180000000    -0.283381   
N29      N      0.379150000000     0.479390000000     0.131210000000    -0.265928   
N30      N      0.183940000000     0.455140000000     0.433150000000    -0.231404   
N31      N      0.364190000000     0.495920000000     0.880340000000    -0.274875   
N32      N      0.113220000000     0.485920000000     0.635060000000    -0.250506   
N33      N      0.403950000000     0.530750000000     0.827770000000    -0.227163   
N34      N      0.863440000000     0.503350000000     0.615870000000    -0.245392   
N35      N      0.615000000000     0.493360000000     0.867700000000    -0.237978   
N36      N      0.813660000000     0.533220000000     0.569680000000    -0.226188   
N37      N      0.623370000000     0.619120000000     0.987710000000    -0.245222   
N38      N      0.871930000000     0.871080000000     0.995460000000    -0.235831   
N39      N      0.672080000000     0.577210000000     0.950290000000    -0.225503   
N40      N      0.622090000000     0.368060000000     0.992600000000    -0.273065   
N41      N      0.870390000000     0.121020000000     0.013200000000    -0.255715   
N42      N      0.672250000000     0.408580000000     0.955600000000    -0.22608    
N43      N      0.374230000000     0.624250000000     0.020500000000    -0.265736   
N44      N      0.123170000000     0.869550000000     0.006970000000    -0.257223   
N45      N      0.327630000000     0.581660000000     0.059860000000    -0.226924   
N46      N      0.123440000000     0.120620000000     0.013860000000    -0.275331   
N47      N      0.371070000000     0.373610000000     0.024630000000    -0.26624    
N48      N      0.178220000000     0.080020000000     0.983460000000    -0.225168   
N49      N      0.622230000000     0.008220000000     0.628450000000    -0.258801   
N50      N      0.870680000000     0.995080000000     0.877780000000    -0.237379   
N51      N      0.672020000000     0.044090000000     0.586330000000    -0.227377   
N52      N      0.371740000000     0.995390000000     0.624270000000    -0.253086   
N53      N      0.121060000000     0.000230000000     0.870680000000    -0.24122    
N54      N      0.410810000000     0.035030000000     0.673850000000    -0.224706   
N55      N      0.370460000000     0.001950000000     0.373070000000    -0.258746   
N56      N      0.124030000000     0.009760000000     0.122120000000    -0.267552   
N57      N      0.316150000000     0.028920000000     0.416390000000    -0.226868   
N58      N      0.870920000000     0.994710000000     0.128280000000    -0.277171   
N59      N      0.622230000000     0.016200000000     0.377060000000    -0.266804   
N60      N      0.816490000000     0.966530000000     0.085950000000    -0.225818   
N61      N      0.992350000000     0.369530000000     0.626530000000    -0.270946   
N62      N      0.006040000000     0.122870000000     0.874840000000    -0.246953   
N63      N      0.953580000000     0.408730000000     0.676410000000    -0.226593   
N64      N      0.986380000000     0.872840000000     0.873480000000    -0.242365   
N65      N      0.986900000000     0.620460000000     0.623680000000    -0.227573   
N66      N      0.954210000000     0.917260000000     0.823180000000    -0.224782   
N67      N      0.015330000000     0.621360000000     0.374110000000    -0.273649   
N68      N      0.002810000000     0.867330000000     0.124020000000    -0.25356    
N69      N      0.053120000000     0.577690000000     0.327230000000    -0.226749   
N70      N      0.011740000000     0.118700000000     0.127920000000    -0.278373   
N71      N      0.022320000000     0.370020000000     0.376810000000    -0.265379   
N72      N      0.984430000000     0.075240000000     0.182130000000    -0.23084    
O1       O      0.006730000000     0.102060000000     0.057470000000    -1.02016    
O2       O      0.001250000000     0.885860000000     0.054430000000    -0.78359    
O3       O      0.940860000000     0.993960000000     0.108570000000    -0.996821   
O4       O      0.054250000000     0.003550000000     0.105420000000    -1.04563    
O5       O      0.104840000000     0.005040000000     0.053100000000    -1.05847    
O6       O      0.888280000000     0.997740000000     0.058050000000    -0.799725   
O7       O      0.999580000000     0.937030000000     0.106590000000    -1.00909    
O8       O      0.008250000000     0.049500000000     0.107230000000    -1.04442    
O9       O      0.042490000000     0.955600000000     0.043100000000    -2.06539    
O10      O      0.958050000000     0.039900000000     0.045940000000    -2.05317    
O11      O      0.953080000000     0.950450000000     0.046880000000    -0.865264   
O12      O      0.006000000000     0.004650000000     0.008530000000    -2.52086    
O13      O      0.992410000000     0.890230000000     0.943820000000    -0.70609    
O14      O      0.000780000000     0.104330000000     0.944510000000    -0.907445   
O15      O      0.889830000000     0.940990000000     0.999620000000    -0.743074   
O16      O      0.104990000000     0.938960000000     0.002170000000    -0.957955   
O17      O      0.104370000000     0.050860000000     0.009020000000    -1.03631    
O18      O      0.888690000000     0.051620000000     0.009930000000    -0.772611   
O19      O      0.940740000000     0.998970000000     0.894590000000    -0.598223   
O20      O      0.051590000000     0.999510000000     0.889930000000    -0.631861   
O21      O      0.889690000000     0.993980000000     0.947510000000    -0.727217   
O22      O      0.103930000000     0.000180000000     0.940900000000    -0.935485   
O23      O      0.942030000000     0.888970000000     0.997680000000    -0.735844   
O24      O      0.940090000000     0.103340000000     0.006700000000    -0.936186   
O25      O      0.053330000000     0.102420000000     0.009840000000    -1.0249     
O26      O      0.053310000000     0.887490000000     0.004570000000    -0.765382   
O27      O      0.993670000000     0.942630000000     0.892390000000    -0.578995   
O28      O      0.001660000000     0.053460000000     0.892150000000    -0.613842   
O29      O      0.040840000000     0.040530000000     0.960730000000    -1.9638     
O30      O      0.958790000000     0.959040000000     0.961980000000    -1.60469    
O31      O      0.951240000000     0.039680000000     0.956770000000    -1.23476    
O32      O      0.039460000000     0.951040000000     0.953820000000    -1.22755    
O33      O      0.010170000000     0.388360000000     0.445570000000    -1.03786    
O34      O      0.006410000000     0.604130000000     0.443540000000    -0.769757   
O35      O      0.948670000000     0.493860000000     0.387170000000    -1.04005    
O36      O      0.060420000000     0.483190000000     0.398300000000    -1.09209    
O37      O      0.108180000000     0.485090000000     0.452690000000    -1.07771    
O38      O      0.892420000000     0.495710000000     0.434090000000    -0.799038   
O39      O      0.007710000000     0.552060000000     0.392420000000    -1.03528    
O40      O      0.014210000000     0.439450000000     0.394130000000    -1.06716    
O41      O      0.045330000000     0.534520000000     0.458520000000    -2.1146     
O42      O      0.959890000000     0.451120000000     0.452010000000    -2.1098     
O43      O      0.956320000000     0.540190000000     0.449100000000    -0.87773    
O44      O      0.006000000000     0.486480000000     0.491710000000    -2.57042    
O45      O      0.990400000000     0.601950000000     0.553580000000    -0.697944   
O46      O      0.994310000000     0.387960000000     0.556770000000    -0.939007   
O47      O      0.890250000000     0.550630000000     0.492850000000    -0.771395   
O48      O      0.104940000000     0.551940000000     0.504420000000    -0.95851    
O49      O      0.102650000000     0.438830000000     0.499420000000    -1.09562    
O50      O      0.887920000000     0.440580000000     0.483630000000    -0.780145   
O51      O      0.934350000000     0.498280000000     0.602180000000    -0.59616    
O52      O      0.044670000000     0.489680000000     0.612520000000    -0.620586   
O53      O      0.886310000000     0.498860000000     0.546470000000    -0.704849   
O54      O      0.099730000000     0.490540000000     0.564470000000    -0.970032   
O55      O      0.941910000000     0.602250000000     0.495010000000    -0.719471   
O56      O      0.938630000000     0.388580000000     0.488820000000    -0.943675   
O57      O      0.050860000000     0.388070000000     0.495340000000    -1.04802    
O58      O      0.053800000000     0.603500000000     0.498120000000    -0.752001   
O59      O      0.989890000000     0.550430000000     0.606120000000    -0.581889   
O60      O      0.991510000000     0.439270000000     0.608440000000    -0.633318   
O61      O      0.037050000000     0.451080000000     0.542040000000    -1.99475    
O62      O      0.956450000000     0.533370000000     0.534550000000    -1.58662    
O63      O      0.947180000000     0.452960000000     0.540750000000    -1.25245    
O64      O      0.036540000000     0.540270000000     0.547470000000    -1.21939    
O65      O      0.603960000000     0.008840000000     0.446230000000    -1.03914    
O66      O      0.387860000000     0.997310000000     0.443500000000    -0.787682   
O67      O      0.498320000000     0.938060000000     0.393650000000    -1.01533    
O68      O      0.504880000000     0.050700000000     0.393250000000    -1.06309    
O69      O      0.505300000000     0.102690000000     0.443960000000    -1.07317    
O70      O      0.501240000000     0.886630000000     0.445400000000    -0.799781   
O71      O      0.440120000000     0.997790000000     0.392620000000    -1.00842    
O72      O      0.552960000000     0.005840000000     0.394430000000    -1.05872    
O73      O      0.456780000000     0.040140000000     0.455570000000    -2.10114    
O74      O      0.542750000000     0.957090000000     0.456400000000    -2.07666    
O75      O      0.453140000000     0.950830000000     0.453840000000    -0.869259   
O76      O      0.505690000000     0.005320000000     0.491970000000    -2.56194    
O77      O      0.390440000000     0.993370000000     0.554510000000    -0.714644   
O78      O      0.604520000000     0.002900000000     0.558310000000    -0.917844   
O79      O      0.443920000000     0.888760000000     0.502070000000    -0.742489   
O80      O      0.438460000000     0.103330000000     0.495180000000    -0.975145   
O81      O      0.550900000000     0.103370000000     0.488580000000    -1.08056    
O82      O      0.555590000000     0.889180000000     0.494430000000    -0.770561   
O83      O      0.495960000000     0.942560000000     0.607890000000    -0.57719    
O84      O      0.501130000000     0.053600000000     0.608760000000    -0.622843   
O85      O      0.495980000000     0.890470000000     0.555900000000    -0.715637   
O86      O      0.499910000000     0.104460000000     0.556410000000    -0.966648   
O87      O      0.390870000000     0.940030000000     0.502110000000    -0.732298   
O88      O      0.606150000000     0.941710000000     0.496470000000    -0.96024    
O89      O      0.603090000000     0.052760000000     0.490820000000    -1.04382    
O90      O      0.387690000000     0.050970000000     0.494820000000    -0.766399   
O91      O      0.442040000000     0.996470000000     0.606930000000    -0.590572   
O92      O      0.552830000000     0.002310000000     0.609780000000    -0.616382   
O93      O      0.540460000000     0.041550000000     0.539550000000    -2.00558    
O94      O      0.459950000000     0.958570000000     0.538760000000    -1.58956    
O95      O      0.540870000000     0.952080000000     0.545960000000    -1.24959    
O96      O      0.451160000000     0.039170000000     0.544700000000    -1.22335    
O97      O      0.389680000000     0.442800000000     0.016270000000    -1.04817    
O98      O      0.605560000000     0.437990000000     0.995980000000    -0.796027   
O99      O      0.489210000000     0.389150000000     0.942820000000    -1.01873    
O100     O      0.492720000000     0.389570000000     0.056550000000    -1.06268    
O101     O      0.493110000000     0.441070000000     0.107500000000    -1.07662    
O102     O      0.485620000000     0.440500000000     0.891070000000    -0.791465   
O103     O      0.552560000000     0.387720000000     0.995580000000    -1.01242    
O104     O      0.440330000000     0.390810000000     0.013410000000    -1.08275    
O105     O      0.538800000000     0.450850000000     0.042170000000    -2.11098    
O106     O      0.449130000000     0.452710000000     0.962950000000    -2.09883    
O107     O      0.538080000000     0.448600000000     0.952720000000    -0.876993   
O108     O      0.488800000000     0.487610000000     0.009410000000    -2.58323    
O109     O      0.604440000000     0.548940000000     0.991380000000    -0.715987   
O110     O      0.390990000000     0.554590000000     0.012680000000    -0.951577   
O111     O      0.545830000000     0.494300000000     0.889650000000    -0.740918   
O112     O      0.561040000000     0.490380000000     0.103970000000    -0.963983   
O113     O      0.448020000000     0.486300000000     0.109980000000    -1.04884    
O114     O      0.434810000000     0.492950000000     0.895100000000    -0.791043   
O115     O      0.496840000000     0.603120000000     0.945760000000    -0.583194   
O116     O      0.499080000000     0.604520000000     0.057160000000    -0.628788   
O117     O      0.495860000000     0.551080000000     0.893900000000    -0.715366   
O118     O      0.501350000000     0.552390000000     0.108170000000    -0.956986   
O119     O      0.600950000000     0.494070000000     0.938690000000    -0.757026   
O120     O      0.386030000000     0.495490000000     0.949270000000    -0.961194   
O121     O      0.393830000000     0.487030000000     0.061240000000    -1.07121    
O122     O      0.609140000000     0.486010000000     0.049160000000    -0.777273   
O123     O      0.553610000000     0.601770000000     0.996060000000    -0.589353   
O124     O      0.443060000000     0.605490000000     0.009340000000    -0.629252   
O125     O      0.456600000000     0.535800000000     0.047060000000    -2.01614    
O126     O      0.533350000000     0.533560000000     0.960320000000    -1.61481    
O127     O      0.452360000000     0.541970000000     0.957650000000    -1.23862    
O128     O      0.546130000000     0.539680000000     0.040510000000    -1.25124    
Tb1      Tb     0.997430000000     0.994110000000     0.070010000000     6.20143    
Tb2      Tb     0.998370000000     0.926680000000     0.001360000000     4.29596    
Tb3      Tb     0.996640000000     0.066120000000     0.000740000000     6.08112    
Tb4      Tb     0.927890000000     0.997170000000     0.003790000000     4.38289    
Tb5      Tb     0.067330000000     0.995160000000     0.998230000000     6.27432    
Tb6      Tb     0.998070000000     0.998780000000     0.930760000000     3.10764    
Tb7      Tb     0.001700000000     0.495690000000     0.429680000000     6.4929     
Tb8      Tb     0.998720000000     0.564430000000     0.497000000000     4.17224    
Tb9      Tb     0.994880000000     0.425360000000     0.500060000000     6.20313    
Tb10     Tb     0.927650000000     0.494710000000     0.491630000000     4.3665     
Tb11     Tb     0.066710000000     0.495520000000     0.505430000000     6.47194    
Tb12     Tb     0.993220000000     0.493610000000     0.568880000000     3.14872    
Tb13     Tb     0.496650000000     0.995120000000     0.430520000000     6.30435    
Tb14     Tb     0.427850000000     0.996710000000     0.497750000000     4.27068    
Tb15     Tb     0.567290000000     0.996800000000     0.501460000000     6.19507    
Tb16     Tb     0.499630000000     0.927290000000     0.498570000000     4.36045    
Tb17     Tb     0.495440000000     0.066530000000     0.500270000000     6.50899    
Tb18     Tb     0.498840000000     0.998860000000     0.569850000000     3.09448    
Tb19     Tb     0.496430000000     0.426160000000     0.999340000000     6.36957    
Tb20     Tb     0.566450000000     0.492280000000     0.997180000000     4.38806    
Tb21     Tb     0.427050000000     0.497870000000     0.003620000000     6.35569    
Tb22     Tb     0.491740000000     0.493930000000     0.931080000000     4.33234    
Tb23     Tb     0.502200000000     0.496290000000     0.070180000000     6.36903    
Tb24     Tb     0.496760000000     0.565340000000     0.002420000000     3.15274    


