data_structure

_audit_creation_method RASPA-1.0
_audit_creation_date 2023-5-19
_audit_author_name 'Poobodin Mano'

_cell_length_a    20.2379
_cell_length_b    20.2153
_cell_length_c    20.2178
_cell_angle_alpha 90
_cell_angle_beta  90
_cell_angle_gamma 90
_cell_volume      8271.41

_symmetry_cell_setting          triclinic
_symmetry_space_group_name_Hall 'P 1'
_symmetry_space_group_name_H-M  'P 1'
_symmetry_Int_Tables_number     1

_symmetry_equiv_pos_as_xyz 'x,y,z'

loop_
_atom_site_label
_atom_site_type_symbol
_atom_site_fract_x
_atom_site_fract_y
_atom_site_fract_z
_atom_site_charge
C1       C      0.023200000000     0.162770000000     0.158880000000     0.723172   
C2       C      0.003790000000     0.855270000000     0.164710000000     0.679429   
C3       C      0.851040000000     0.013390000000     0.159370000000     0.66949    
C4       C      0.158850000000     0.022350000000     0.163640000000     0.751974   
C5       C      0.011930000000     0.851360000000     0.860630000000     0.567177   
C6       C      0.030580000000     0.157260000000     0.851110000000     0.663274   
C7       C      0.857990000000     0.855760000000     0.000060000000     0.579636   
C8       C      0.163790000000     0.853000000000     0.026940000000     0.686243   
C9       C      0.164290000000     0.159410000000     0.024150000000     0.727853   
C10      C      0.857480000000     0.163230000000     0.009050000000     0.688009   
C11      C      0.861390000000     0.008200000000     0.854410000000     0.574087   
C12      C      0.166550000000     0.008140000000     0.855210000000     0.647194   
C13      C      0.029170000000     0.359680000000     0.352940000000     0.732599   
C14      C      0.015120000000     0.666110000000     0.360570000000     0.682466   
C15      C      0.856620000000     0.516670000000     0.354190000000     0.676149   
C16      C      0.167850000000     0.497870000000     0.363860000000     0.762571   
C17      C      0.003060000000     0.655980000000     0.665920000000     0.555014   
C18      C      0.017420000000     0.350080000000     0.660470000000     0.651685   
C19      C      0.858250000000     0.660960000000     0.511440000000     0.58023    
C20      C      0.163380000000     0.662390000000     0.508290000000     0.696712   
C21      C      0.159220000000     0.354820000000     0.491830000000     0.733211   
C22      C      0.852960000000     0.355940000000     0.491260000000     0.68856    
C23      C      0.855180000000     0.507000000000     0.659520000000     0.562766   
C24      C      0.159750000000     0.490830000000     0.668030000000     0.657815   
C25      C      0.659890000000     0.024370000000     0.356630000000     0.729906   
C26      C      0.352360000000     0.018930000000     0.357760000000     0.679121   
C27      C      0.502990000000     0.854350000000     0.352630000000     0.67484    
C28      C      0.527710000000     0.161780000000     0.360710000000     0.744466   
C29      C      0.359780000000     0.996770000000     0.662090000000     0.580207   
C30      C      0.664270000000     0.011470000000     0.663830000000     0.641037   
C31      C      0.358680000000     0.854330000000     0.502260000000     0.59457    
C32      C      0.351500000000     0.159630000000     0.505070000000     0.690866   
C33      C      0.658490000000     0.162690000000     0.497250000000     0.724389   
C34      C      0.664600000000     0.854440000000     0.494350000000     0.684976   
C35      C      0.499950000000     0.853680000000     0.657470000000     0.577595   
C36      C      0.515650000000     0.159600000000     0.668900000000     0.643481   
C37      C      0.360250000000     0.350800000000     0.997420000000     0.527077   
C38      C      0.357430000000     0.660140000000     0.037710000000     0.716733   
C39      C      0.360690000000     0.519680000000     0.167940000000     0.732031   
C40      C      0.354540000000     0.488900000000     0.860330000000     0.538513   
C41      C      0.662980000000     0.661410000000     0.007040000000     0.702275   
C42      C      0.664970000000     0.357330000000     0.006230000000     0.456289   
C43      C      0.493980000000     0.659280000000     0.159530000000     0.778153   
C44      C      0.496460000000     0.661720000000     0.853020000000     0.580104   
C45      C      0.494670000000     0.355490000000     0.861790000000     0.336797   
C46      C      0.507690000000     0.354380000000     0.167750000000     0.582278   
C47      C      0.666830000000     0.514430000000     0.157760000000     0.728038   
C48      C      0.659920000000     0.506260000000     0.853410000000     0.459485   
C49      C      0.513710000000     0.323460000000     0.281350000000     0.0405211  
C50      C      0.521030000000     0.242160000000     0.198380000000    -0.0272478  
C51      C      0.522190000000     0.274830000000     0.329650000000     0.0512433  
C52      C      0.537240000000     0.194570000000     0.245860000000     0.172452   
C53      C      0.507010000000     0.692760000000     0.271550000000     0.0554054  
C54      C      0.475850000000     0.771260000000     0.191570000000     0.00971507 
C55      C      0.509710000000     0.742400000000     0.319300000000     0.0283745  
C56      C      0.472690000000     0.820720000000     0.240570000000     0.146719   
C57      C      0.505140000000     0.773950000000     0.819380000000     0.0494464  
C58      C      0.479850000000     0.692070000000     0.740650000000    -0.0179285  
C59      C      0.505200000000     0.821650000000     0.769770000000     0.0339676  
C60      C      0.474750000000     0.740520000000     0.691030000000     0.158905   
C61      C      0.490250000000     0.320540000000     0.748880000000     0.00630419 
C62      C      0.513600000000     0.242880000000     0.832130000000    -0.0256625  
C63      C      0.498300000000     0.271270000000     0.700890000000     0.0660106  
C64      C      0.526990000000     0.194160000000     0.784030000000     0.164366   
C65      C      0.818900000000     0.243890000000     0.478110000000     0.0430117  
C66      C      0.740090000000     0.326210000000     0.501380000000    -0.000368665
C67      C      0.769500000000     0.195800000000     0.480810000000     0.044346   
C68      C      0.691290000000     0.277790000000     0.510700000000     0.162506   
C69      C      0.745200000000     0.693970000000     0.514190000000     0.0297239  
C70      C      0.827560000000     0.772800000000     0.491000000000    -0.00662278 
C71      C      0.696760000000     0.742580000000     0.506980000000     0.0473306  
C72      C      0.778890000000     0.821050000000     0.478930000000     0.160905   
C73      C      0.271950000000     0.320850000000     0.487080000000     0.0438536  
C74      C      0.188370000000     0.241370000000     0.501530000000     0.0128341  
C75      C      0.319700000000     0.271450000000     0.492380000000     0.0454449  
C76      C      0.236050000000     0.192280000000     0.513420000000     0.150566   
C77      C      0.196420000000     0.775320000000     0.508260000000     0.042035   
C78      C      0.276160000000     0.691650000000     0.495140000000     0.0139413  
C79      C      0.245900000000     0.823070000000     0.504760000000     0.0342782  
C80      C      0.325610000000     0.739480000000     0.486230000000     0.141322   
C81      C      0.779730000000     0.509950000000     0.190960000000     0.0365629  
C82      C      0.696810000000     0.532760000000     0.269450000000     0.0173355  
C83      C      0.827230000000     0.511510000000     0.240980000000     0.0500505  
C84      C      0.744650000000     0.539910000000     0.318960000000     0.147991   
C85      C      0.248610000000     0.506740000000     0.202090000000     0.0362172  
C86      C      0.331940000000     0.515940000000     0.282090000000     0.00765134 
C87      C      0.201400000000     0.500050000000     0.251810000000     0.0427488  
C88      C      0.285720000000     0.503820000000     0.332860000000     0.154129   
C89      C      0.271660000000     0.475560000000     0.700600000000     0.0586148  
C90      C      0.190200000000     0.495690000000     0.781240000000    -0.000643651
C91      C      0.320140000000     0.475870000000     0.749510000000     0.0196114  
C92      C      0.239040000000     0.501920000000     0.830110000000     0.153391   
C93      C      0.820670000000     0.494250000000     0.771500000000     0.0363557  
C94      C      0.742390000000     0.522290000000     0.690290000000     0.0066265  
C95      C      0.771170000000     0.494500000000     0.819540000000     0.0398521  
C96      C      0.692920000000     0.527790000000     0.739130000000     0.138698   
C97      C      0.695440000000     0.775310000000     0.008190000000     0.0507847  
C98      C      0.775570000000     0.692580000000     0.993090000000     0.00468532 
C99      C      0.744810000000     0.823790000000     0.004190000000     0.0280321  
C100     C      0.824630000000     0.741000000000     0.983630000000     0.147825   
C101     C      0.825120000000     0.275280000000     0.993000000000     0.0563289  
C102     C      0.746740000000     0.196140000000     0.027030000000     0.0123771  
C103     C      0.776200000000     0.323860000000     0.992860000000     0.031424   
C104     C      0.698840000000     0.245680000000     0.033100000000     0.135635   
C105     C      0.277020000000     0.821350000000     0.026680000000     0.0398568  
C106     C      0.195240000000     0.742210000000     0.050620000000    -0.00458514 
C107     C      0.325660000000     0.772820000000     0.031820000000     0.0497198  
C108     C      0.244360000000     0.694230000000     0.060980000000     0.152116   
C109     C      0.326900000000     0.237140000000     0.001680000000     0.00950561 
C110     C      0.247640000000     0.321420000000     0.012060000000    -0.00127697 
C111     C      0.277470000000     0.189580000000     0.012020000000     0.0627824  
C112     C      0.199170000000     0.274610000000     0.028800000000     0.155347   
C113     C      0.699280000000     0.998200000000     0.775400000000     0.0364793  
C114     C      0.776740000000     0.027160000000     0.693560000000     0.0115314  
C115     C      0.749470000000     0.997540000000     0.822610000000     0.0442311  
C116     C      0.826600000000     0.032200000000     0.741640000000     0.145732   
C117     C      0.279420000000     0.015550000000     0.822790000000     0.049743   
C118     C      0.198500000000     0.985150000000     0.744800000000     0.00192418 
C119     C      0.327920000000     0.010620000000     0.773990000000     0.032392   
C120     C      0.247540000000     0.974450000000     0.697060000000     0.152081   
C121     C      0.319470000000     0.033390000000     0.245600000000     0.0386915  
C122     C      0.239410000000     0.012890000000     0.327450000000    -0.00315131 
C123     C      0.270110000000     0.033930000000     0.197510000000     0.0464852  
C124     C      0.190230000000     0.007170000000     0.278970000000     0.159035   
C125     C      0.771710000000     0.036300000000     0.320690000000     0.0360003  
C126     C      0.689360000000     0.006640000000     0.244180000000     0.00523585 
C127     C      0.819280000000     0.031710000000     0.270720000000     0.0453731  
C128     C      0.737280000000     0.997030000000     0.194780000000     0.147631   
C129     C      0.019710000000     0.236450000000     0.690250000000     0.0477974  
C130     C      0.043520000000     0.318170000000     0.769990000000    -0.00586056 
C131     C      0.025880000000     0.187760000000     0.738440000000     0.0365221  
C132     C      0.054360000000     0.269220000000     0.817600000000     0.166287   
C133     C      0.993880000000     0.768690000000     0.700150000000     0.0391604  
C134     C      0.017360000000     0.686720000000     0.779110000000    -0.00518974 
C135     C      0.997700000000     0.817210000000     0.749310000000     0.0381107  
C136     C      0.026590000000     0.735680000000     0.828090000000     0.149315   
C137     C      0.017170000000     0.778990000000     0.327370000000     0.031665   
C138     C      0.996300000000     0.695270000000     0.248950000000     0.0110328  
C139     C      0.011550000000     0.826440000000     0.277780000000     0.0493047  
C140     C      0.985480000000     0.742770000000     0.200010000000     0.149999   
C141     C      0.034590000000     0.196900000000     0.271850000000     0.0397636  
C142     C      0.023690000000     0.276940000000     0.188700000000     0.00279157 
C143     C      0.037590000000     0.247100000000     0.319660000000     0.0417598  
C144     C      0.032170000000     0.328000000000     0.235400000000     0.150653   
H1       H      0.961790000000     0.962190000000     0.057730000000    -1.24954    
H2       H      0.049600000000     0.047900000000     0.048050000000    -1.09517    
H3       H      0.954000000000     0.118460000000     0.944720000000    -0.52737    
H4       H      0.122980000000     0.945420000000     0.953860000000    -0.549777   
H5       H      0.964010000000     0.556200000000     0.461730000000    -1.23238    
H6       H      0.049330000000     0.468800000000     0.470650000000    -1.12444    
H7       H      0.947350000000     0.394410000000     0.565130000000    -0.532277   
H8       H      0.120020000000     0.565160000000     0.574180000000    -0.584241   
H9       H      0.462280000000     0.961370000000     0.459610000000    -1.29121    
H10      H      0.547840000000     0.048660000000     0.470860000000    -1.06492    
H11      H      0.621230000000     0.947490000000     0.566180000000    -0.507374   
H12      H      0.448420000000     0.117780000000     0.571640000000    -0.525309   
H13      H      0.468300000000     0.546880000000     0.049670000000     0.68481    
H14      H      0.467250000000     0.467490000000     0.971910000000    -2.82947    
H15      H      0.569670000000     0.399050000000     0.070440000000     0.436876   
H16      H      0.563730000000     0.568130000000     0.898170000000     0.405338   
H17      H      0.519330000000     0.290340000000     0.380910000000     0.0266779  
H18      H      0.506900000000     0.374140000000     0.297550000000     0.0301481  
H19      H      0.521470000000     0.227300000000     0.146860000000     0.0438897  
H20      H      0.593600000000     0.107560000000     0.254150000000     0.112434   
H21      H      0.565740000000     0.125280000000     0.173680000000     0.0790358  
H22      H      0.525810000000     0.727860000000     0.368350000000     0.0293999  
H23      H      0.520240000000     0.643000000000     0.286600000000     0.0211633  
H24      H      0.460320000000     0.783740000000     0.141710000000     0.0405496  
H25      H      0.421800000000     0.910510000000     0.259450000000     0.101805   
H26      H      0.427160000000     0.888030000000     0.175820000000     0.0780348  
H27      H      0.517760000000     0.871650000000     0.784570000000     0.0349298  
H28      H      0.516380000000     0.789880000000     0.869350000000     0.0290548  
H29      H      0.467610000000     0.641350000000     0.727970000000     0.0451112  
H30      H      0.424660000000     0.756330000000     0.600690000000     0.121838   
H31      H      0.434840000000     0.673000000000     0.622830000000     0.0853756  
H32      H      0.489310000000     0.285420000000     0.649950000000     0.0202183  
H33      H      0.477400000000     0.369910000000     0.732300000000     0.0422966  
H34      H      0.522370000000     0.230260000000     0.883560000000     0.0577019  
H35      H      0.564710000000     0.128150000000     0.854910000000     0.0882406  
H36      H      0.583740000000     0.106640000000     0.772950000000     0.113255   
H37      H      0.783860000000     0.145320000000     0.469740000000     0.0271702  
H38      H      0.868830000000     0.228030000000     0.466780000000     0.0235034  
H39      H      0.727110000000     0.377250000000     0.511800000000     0.0447279  
H40      H      0.624220000000     0.347440000000     0.548860000000     0.0815915  
H41      H      0.603470000000     0.265420000000     0.566960000000     0.104364   
H42      H      0.646050000000     0.727940000000     0.516260000000     0.0270439  
H43      H      0.729240000000     0.644370000000     0.526930000000     0.0304175  
H44      H      0.878730000000     0.785860000000     0.481680000000     0.0441231  
H45      H      0.765260000000     0.909840000000     0.424690000000     0.103429   
H46      H      0.848050000000     0.888450000000     0.440500000000     0.0808363  
H47      H      0.370790000000     0.286320000000     0.486020000000     0.0227238  
H48      H      0.288780000000     0.370970000000     0.479520000000     0.0216545  
H49      H      0.136800000000     0.227930000000     0.507530000000     0.0391885  
H50      H      0.245150000000     0.102250000000     0.566960000000     0.109436   
H51      H      0.164280000000     0.123940000000     0.544760000000     0.08154    
H52      H      0.230490000000     0.874180000000     0.509370000000     0.0273276  
H53      H      0.145970000000     0.792070000000     0.515010000000     0.0284343  
H54      H      0.289440000000     0.640050000000     0.488470000000     0.0376784  
H55      H      0.416360000000     0.749900000000     0.435210000000     0.109209   
H56      H      0.394570000000     0.668320000000     0.454870000000     0.0790167  
H57      H      0.877800000000     0.500430000000     0.227140000000     0.0233643  
H58      H      0.795950000000     0.499100000000     0.141000000000     0.0308717  
H59      H      0.645860000000     0.544010000000     0.281950000000     0.0330872  
H60      H      0.676250000000     0.580100000000     0.386170000000     0.0804775  
H61      H      0.759340000000     0.591270000000     0.408980000000     0.106136   
H62      H      0.150630000000     0.496520000000     0.235730000000     0.0164921  
H63      H      0.231510000000     0.504030000000     0.151360000000     0.0163704  
H64      H      0.383520000000     0.521600000000     0.295700000000     0.0413936  
H65      H      0.361280000000     0.503160000000     0.404100000000     0.0744085  
H66      H      0.287250000000     0.472850000000     0.434230000000     0.113526   
H67      H      0.370460000000     0.465400000000     0.734240000000     0.0352086  
H68      H      0.287060000000     0.466360000000     0.650060000000     0.0234891  
H69      H      0.139350000000     0.505570000000     0.795150000000     0.0415304  
H70      H      0.252500000000     0.551870000000     0.921880000000     0.0740441  
H71      H      0.170290000000     0.536340000000     0.900070000000     0.0748819  
H72      H      0.785600000000     0.480870000000     0.869380000000     0.0388018  
H73      H      0.870350000000     0.481690000000     0.787180000000     0.0346426  
H74      H      0.729790000000     0.535520000000     0.639820000000     0.0438397  
H75      H      0.625440000000     0.569150000000     0.671840000000     0.0862579  
H76      H      0.602730000000     0.579220000000     0.754890000000     0.110134   
H77      H      0.729480000000     0.874750000000     0.010350000000     0.0269053  
H78      H      0.644980000000     0.791470000000     0.016140000000     0.0201589  
H79      H      0.789390000000     0.641190000000     0.985980000000     0.0444395  
H80      H      0.914790000000     0.752820000000     0.932200000000     0.122188   
H81      H      0.893820000000     0.670640000000     0.950940000000     0.0852779  
H82      H      0.790080000000     0.373040000000     0.976510000000     0.0397714  
H83      H      0.874600000000     0.289470000000     0.978090000000     0.0267968  
H84      H      0.734060000000     0.146530000000     0.043230000000     0.0436413  
H85      H      0.614860000000     0.267030000000     0.091030000000     0.106037   
H86      H      0.633270000000     0.182360000000     0.083010000000     0.0834612  
H87      H      0.376090000000     0.787880000000     0.021760000000     0.025741   
H88      H      0.292760000000     0.871120000000     0.014390000000     0.0265793  
H89      H      0.144250000000     0.729060000000     0.060900000000     0.0425018  
H90      H      0.177080000000     0.626830000000     0.102540000000     0.0786065  
H91      H      0.261250000000     0.609700000000     0.117660000000     0.108956   
H92      H      0.292060000000     0.138080000000     0.008880000000     0.0225328  
H93      H      0.377030000000     0.220090000000     0.993400000000     0.0387964  
H94      H      0.234060000000     0.373290000000     0.014830000000     0.0373683  
H95      H      0.131680000000     0.348210000000     0.057820000000     0.0747487  
H96      H      0.112620000000     0.267920000000     0.085520000000     0.11004    
H97      H      0.735770000000     0.983070000000     0.872420000000     0.0338734  
H98      H      0.649720000000     0.985510000000     0.791340000000     0.0294107  
H99      H      0.788720000000     0.041230000000     0.643150000000     0.0392085  
H100     H      0.915530000000     0.084860000000     0.758000000000     0.112789   
H101     H      0.892960000000     0.075870000000     0.674630000000     0.0826974  
H102     H      0.377950000000     0.023790000000     0.787970000000     0.0362419  
H103     H      0.294480000000     0.030520000000     0.872040000000     0.024985   
H104     H      0.148030000000     0.972070000000     0.732180000000     0.045621   
H105     H      0.181500000000     0.927460000000     0.631950000000     0.0836442  
H106     H      0.265710000000     0.915520000000     0.613070000000     0.11205    
H107     H      0.285190000000     0.044900000000     0.147210000000     0.0276571  
H108     H      0.369900000000     0.042500000000     0.229950000000     0.0245112  
H109     H      0.225760000000     0.002630000000     0.378350000000     0.0444226  
H110     H      0.099370000000     0.956470000000     0.266010000000     0.0983303  
H111     H      0.120930000000     0.972370000000     0.348210000000     0.0782065  
H112     H      0.869650000000     0.044380000000     0.283930000000     0.023407   
H113     H      0.787860000000     0.050470000000     0.369820000000     0.0241795  
H114     H      0.638670000000     0.993680000000     0.232390000000     0.0368128  
H115     H      0.751020000000     0.940630000000     0.107470000000     0.100979   
H116     H      0.668330000000     0.954310000000     0.129770000000     0.0793517  
H117     H      0.017120000000     0.137070000000     0.723380000000     0.0261873  
H118     H      0.007510000000     0.221070000000     0.640340000000     0.0236499  
H119     H      0.053930000000     0.369130000000     0.783330000000     0.0470396  
H120     H      0.108450000000     0.252400000000     0.905610000000     0.113088   
H121     H      0.096340000000     0.336300000000     0.885110000000     0.0842555  
H122     H      0.987090000000     0.867660000000     0.734470000000     0.0350449  
H123     H      0.982140000000     0.784590000000     0.650300000000     0.034889   
H124     H      0.027580000000     0.635680000000     0.792210000000     0.0440853  
H125     H      0.079680000000     0.748900000000     0.917800000000     0.10796    
H126     H      0.063890000000     0.666430000000     0.896040000000     0.0800396  
H127     H      0.019200000000     0.877530000000     0.291840000000     0.0175559  
H128     H      0.027830000000     0.795600000000     0.377250000000     0.0295104  
H129     H      0.987100000000     0.643920000000     0.236220000000     0.0366992  
H130     H      0.930830000000     0.755430000000     0.111470000000     0.107103   
H131     H      0.946690000000     0.672800000000     0.133490000000     0.0812441  
H132     H      0.041470000000     0.231430000000     0.370800000000     0.0284178  
H133     H      0.037640000000     0.146060000000     0.288690000000     0.0288881  
H134     H      0.016290000000     0.290850000000     0.137460000000     0.0340916  
H135     H      0.062630000000     0.428750000000     0.236580000000     0.10454    
H136     H      0.035400000000     0.399770000000     0.160290000000     0.0731184  
N1       N      0.512370000000     0.306840000000     0.215780000000    -0.204027   
N2       N      0.531590000000     0.209810000000     0.312410000000    -0.266061   
N3       N      0.564230000000     0.136940000000     0.224030000000    -0.220098   
N4       N      0.492010000000     0.707490000000     0.207320000000    -0.250331   
N5       N      0.494710000000     0.806910000000     0.304120000000    -0.246822   
N6       N      0.441510000000     0.878290000000     0.224540000000    -0.216323   
N7       N      0.494040000000     0.709020000000     0.804560000000    -0.20679    
N8       N      0.492420000000     0.805290000000     0.705050000000    -0.226945   
N9       N      0.445920000000     0.722490000000     0.632920000000    -0.218164   
N10      N      0.497500000000     0.306360000000     0.814580000000    -0.151292   
N11      N      0.515080000000     0.207540000000     0.717840000000    -0.24414    
N12      N      0.557790000000     0.137830000000     0.804590000000    -0.217737   
N13      N      0.804150000000     0.308980000000     0.488680000000    -0.225414   
N14      N      0.705500000000     0.212080000000     0.496540000000    -0.258304   
N15      N      0.634320000000     0.297330000000     0.541020000000    -0.215632   
N16      N      0.810640000000     0.709240000000     0.507150000000    -0.20604    
N17      N      0.713220000000     0.806690000000     0.491790000000    -0.24864    
N18      N      0.798080000000     0.878140000000     0.448590000000    -0.216941   
N19      N      0.206290000000     0.305880000000     0.491350000000    -0.23981    
N20      N      0.302410000000     0.206900000000     0.504490000000    -0.247824   
N21      N      0.214730000000     0.134290000000     0.540540000000    -0.21368    
N22      N      0.211790000000     0.709630000000     0.504920000000    -0.229224   
N23      N      0.311070000000     0.805680000000     0.497050000000    -0.233558   
N24      N      0.384170000000     0.718690000000     0.460280000000    -0.215104   
N25      N      0.714410000000     0.518480000000     0.205730000000    -0.2339     
N26      N      0.809670000000     0.523550000000     0.305460000000    -0.248557   
N27      N      0.725900000000     0.569520000000     0.376530000000    -0.214646   
N28      N      0.313790000000     0.516010000000     0.217090000000    -0.240043   
N29      N      0.218530000000     0.498810000000     0.317550000000    -0.263941   
N30      N      0.311090000000     0.495090000000     0.394820000000    -0.217526   
N31      N      0.206870000000     0.486120000000     0.716460000000    -0.22226    
N32      N      0.304500000000     0.488660000000     0.814280000000    -0.216757   
N33      N      0.220220000000     0.528780000000     0.889120000000    -0.209315   
N34      N      0.806250000000     0.507360000000     0.706750000000    -0.201476   
N35      N      0.706920000000     0.509770000000     0.803920000000    -0.200821   
N36      N      0.635230000000     0.557750000000     0.721330000000    -0.210875   
N37      N      0.711010000000     0.709610000000     0.003960000000    -0.229471   
N38      N      0.810000000000     0.807120000000     0.994720000000    -0.227334   
N39      N      0.883050000000     0.720870000000     0.956920000000    -0.216175   
N40      N      0.809960000000     0.211340000000     0.009020000000    -0.229384   
N41      N      0.712610000000     0.309070000000     0.011020000000    -0.200644   
N42      N      0.643470000000     0.230880000000     0.068340000000    -0.210069   
N43      N      0.211690000000     0.805580000000     0.034030000000    -0.22597    
N44      N      0.309550000000     0.708320000000     0.045590000000    -0.260662   
N45      N      0.226580000000     0.637830000000     0.092630000000    -0.219708   
N46      N      0.311830000000     0.303090000000     0.001200000000    -0.191055   
N47      N      0.213000000000     0.207660000000     0.023880000000    -0.262513   
N48      N      0.142300000000     0.297620000000     0.056160000000    -0.219329   
N49      N      0.713160000000     0.011890000000     0.710750000000    -0.219064   
N50      N      0.813530000000     0.012870000000     0.806090000000    -0.226225   
N51      N      0.883630000000     0.063320000000     0.723930000000    -0.214347   
N52      N      0.214630000000     0.004240000000     0.807700000000    -0.219868   
N53      N      0.312020000000     0.992570000000     0.710430000000    -0.226625   
N54      N      0.230700000000     0.939630000000     0.641980000000    -0.216019   
N55      N      0.304030000000     0.022690000000     0.310470000000    -0.226428   
N56      N      0.205340000000     0.021280000000     0.213480000000    -0.264544   
N57      N      0.131560000000     0.980170000000     0.298200000000    -0.215726   
N58      N      0.706690000000     0.024190000000     0.307300000000    -0.240199   
N59      N      0.802520000000     0.013400000000     0.207390000000    -0.247703   
N60      N      0.718130000000     0.964660000000     0.138840000000    -0.215218   
N61      N      0.025780000000     0.301670000000     0.706820000000    -0.219567   
N62      N      0.038610000000     0.204350000000     0.802960000000    -0.245532   
N63      N      0.085920000000     0.286760000000     0.874520000000    -0.217443   
N64      N      0.003420000000     0.703370000000     0.714960000000    -0.199661   
N65      N      0.012800000000     0.801430000000     0.813680000000    -0.225267   
N66      N      0.055800000000     0.716470000000     0.885760000000    -0.215233   
N67      N      0.011070000000     0.713430000000     0.312480000000    -0.229265   
N68      N      0.999120000000     0.808370000000     0.213530000000    -0.250466   
N69      N      0.955100000000     0.722900000000     0.143170000000    -0.21479    
N70      N      0.027170000000     0.211760000000     0.206270000000    -0.237779   
N71      N      0.034670000000     0.312990000000     0.302630000000    -0.258398   
N72      N      0.041020000000     0.390160000000     0.210800000000    -0.217321   
O1       O      0.021510000000     0.180380000000     0.094900000000    -1.07413    
O2       O      0.010560000000     0.835000000000     0.101970000000    -0.802116   
O3       O      0.914680000000     0.012640000000     0.179030000000    -1.01156    
O4       O      0.094980000000     0.025040000000     0.179750000000    -1.09911    
O5       O      0.179800000000     0.019490000000     0.100900000000    -1.08283    
O6       O      0.833490000000     0.015230000000     0.095230000000    -0.780203   
O7       O      0.002910000000     0.919630000000     0.182150000000    -1.02149    
O8       O      0.020030000000     0.099700000000     0.178690000000    -1.07017    
O9       O      0.079690000000     0.945430000000     0.082750000000    -2.0984     
O10      O      0.945490000000     0.081610000000     0.076340000000    -2.10131    
O11      O      0.936350000000     0.938380000000     0.082860000000    -0.869597   
O12      O      0.024570000000     0.022080000000     0.022120000000    -2.58669    
O13      O      0.008800000000     0.834820000000     0.925280000000    -0.722992   
O14      O      0.022940000000     0.177390000000     0.914040000000    -0.951746   
O15      O      0.838620000000     0.920080000000     0.001060000000    -0.72382    
O16      O      0.183060000000     0.916200000000     0.019540000000    -0.969659   
O17      O      0.182660000000     0.095650000000     0.024090000000    -1.07179    
O18      O      0.838260000000     0.099720000000     0.013470000000    -0.763744   
O19      O      0.925670000000     0.005510000000     0.836270000000    -0.59063    
O20      O      0.103360000000     0.005210000000     0.835530000000    -0.635117   
O21      O      0.841250000000     0.007660000000     0.918160000000    -0.718      
O22      O      0.184590000000     0.011150000000     0.919470000000    -0.92817    
O23      O      0.921660000000     0.836780000000     0.007290000000    -0.740522   
O24      O      0.921190000000     0.181640000000     0.004270000000    -0.960984   
O25      O      0.101020000000     0.178040000000     0.018530000000    -1.08123    
O26      O      0.099840000000     0.834540000000     0.027240000000    -0.762105   
O27      O      0.013510000000     0.914940000000     0.839480000000    -0.583126   
O28      O      0.026620000000     0.093450000000     0.832970000000    -0.635276   
O29      O      0.083090000000     0.075890000000     0.945660000000    -2.02418    
O30      O      0.950920000000     0.946290000000     0.947300000000    -1.59479    
O31      O      0.940780000000     0.075440000000     0.933550000000    -1.2464     
O32      O      0.080570000000     0.932730000000     0.940310000000    -1.24715    
O33      O      0.027730000000     0.339020000000     0.416080000000    -1.0459     
O34      O      0.016980000000     0.684850000000     0.424420000000    -0.768348   
O35      O      0.921010000000     0.517100000000     0.336660000000    -1.00259    
O36      O      0.104580000000     0.498960000000     0.343080000000    -1.07963    
O37      O      0.183250000000     0.500360000000     0.427500000000    -1.13463    
O38      O      0.836470000000     0.509040000000     0.417000000000    -0.792627   
O39      O      0.013500000000     0.602590000000     0.341120000000    -1.0476     
O40      O      0.021020000000     0.423180000000     0.337190000000    -1.10704    
O41      O      0.082500000000     0.572860000000     0.442840000000    -2.12461    
O42      O      0.946050000000     0.438770000000     0.435600000000    -2.10304    
O43      O      0.940280000000     0.581620000000     0.436500000000    -0.876072   
O44      O      0.023290000000     0.493660000000     0.496530000000    -2.59666    
O45      O      0.002650000000     0.676530000000     0.602190000000    -0.699143   
O46      O      0.012810000000     0.332540000000     0.596310000000    -0.93709    
O47      O      0.838420000000     0.597000000000     0.511520000000    -0.741229   
O48      O      0.181690000000     0.598380000000     0.510980000000    -0.979596   
O49      O      0.178900000000     0.418080000000     0.495280000000    -1.0961     
O50      O      0.835140000000     0.419850000000     0.495130000000    -0.778131   
O51      O      0.918540000000     0.501830000000     0.680030000000    -0.582331   
O52      O      0.096060000000     0.495670000000     0.686100000000    -0.6215     
O53      O      0.837360000000     0.510890000000     0.595050000000    -0.710531   
O54      O      0.179630000000     0.493360000000     0.604550000000    -0.980581   
O55      O      0.922360000000     0.680040000000     0.511590000000    -0.724559   
O56      O      0.916420000000     0.335910000000     0.493540000000    -0.959113   
O57      O      0.095770000000     0.336450000000     0.493590000000    -1.07685    
O58      O      0.099920000000     0.681780000000     0.508350000000    -0.765681   
O59      O      0.006500000000     0.591490000000     0.683840000000    -0.572542   
O60      O      0.015330000000     0.413030000000     0.681330000000    -0.622816   
O61      O      0.077340000000     0.434840000000     0.572190000000    -2.03338    
O62      O      0.948000000000     0.567120000000     0.572270000000    -1.58397    
O63      O      0.934860000000     0.437070000000     0.578640000000    -1.23828    
O64      O      0.077090000000     0.578050000000     0.585920000000    -1.23179    
O65      O      0.679610000000     0.026340000000     0.419870000000    -1.04339    
O66      O      0.333690000000     0.015230000000     0.421360000000    -0.795193   
O67      O      0.503160000000     0.918820000000     0.335680000000    -1.02366    
O68      O      0.521930000000     0.098930000000     0.341630000000    -1.1271     
O69      O      0.523760000000     0.180440000000     0.424260000000    -1.0442     
O70      O      0.510310000000     0.834160000000     0.415630000000    -0.803027   
O71      O      0.416080000000     0.017600000000     0.338370000000    -1.02374    
O72      O      0.596570000000     0.017980000000     0.338960000000    -1.10959    
O73      O      0.444750000000     0.080770000000     0.440470000000    -2.11567    
O74      O      0.580740000000     0.946050000000     0.436710000000    -2.09875    
O75      O      0.437670000000     0.937580000000     0.433680000000    -0.894021   
O76      O      0.522910000000     0.022490000000     0.496490000000    -2.58453    
O77      O      0.340440000000     0.999840000000     0.598100000000    -0.730253   
O78      O      0.682160000000     0.013930000000     0.599710000000    -0.922188   
O79      O      0.422690000000     0.836040000000     0.505910000000    -0.75781    
O80      O      0.415100000000     0.179560000000     0.508390000000    -0.944389   
O81      O      0.594830000000     0.179830000000     0.496680000000    -1.07026    
O82      O      0.600920000000     0.835150000000     0.494540000000    -0.777756   
O83      O      0.505110000000     0.917040000000     0.678210000000    -0.597203   
O84      O      0.513310000000     0.095410000000     0.686110000000    -0.633561   
O85      O      0.504490000000     0.835690000000     0.593240000000    -0.726784   
O86      O      0.513720000000     0.179210000000     0.605080000000    -0.933201   
O87      O      0.338680000000     0.918290000000     0.504170000000    -0.74832    
O88      O      0.682540000000     0.918190000000     0.501410000000    -0.930982   
O89      O      0.678680000000     0.099440000000     0.498380000000    -1.03434    
O90      O      0.334600000000     0.095720000000     0.500960000000    -0.779443   
O91      O      0.423420000000     0.001780000000     0.681480000000    -0.598483   
O92      O      0.600960000000     0.007350000000     0.683530000000    -0.641693   
O93      O      0.579320000000     0.077990000000     0.574020000000    -1.97818    
O94      O      0.449810000000     0.945830000000     0.569400000000    -1.62758    
O95      O      0.578900000000     0.934150000000     0.579390000000    -1.24643    
O96      O      0.436250000000     0.074560000000     0.583310000000    -1.25987    
O97      O      0.423530000000     0.332790000000     0.002230000000    -0.275456   
O98      O      0.419880000000     0.679300000000     0.028400000000    -1.23109    
O99      O      0.340520000000     0.518090000000     0.105170000000    -1.08913    
O100     O      0.338970000000     0.482370000000     0.923830000000    -0.867867   
O101     O      0.416740000000     0.496250000000     0.839610000000    -0.299159   
O102     O      0.424430000000     0.520460000000     0.184780000000    -1.26038    
O103     O      0.339060000000     0.596800000000     0.034280000000    -1.09062    
O104     O      0.341320000000     0.414020000000     0.994560000000    -0.842693   
O105     O      0.429580000000     0.576700000000     0.941510000000    -1.61563    
O106     O      0.434930000000     0.437430000000     0.082290000000    -1.62013    
O107     O      0.493260000000     0.520690000000     0.023070000000    -8.33397    
O108     O      0.492330000000     0.494430000000     0.997460000000     6.32152    
O109     O      0.598730000000     0.679720000000     0.006230000000    -1.0502     
O110     O      0.601110000000     0.338670000000     0.005530000000    -0.33003    
O111     O      0.498230000000     0.596130000000     0.179000000000    -1.24292    
O112     O      0.494420000000     0.597920000000     0.835380000000    -0.383831   
O113     O      0.493140000000     0.418900000000     0.841840000000    -0.224131   
O114     O      0.511220000000     0.417960000000     0.185360000000    -1.13012    
O115     O      0.685420000000     0.513320000000     0.093900000000    -0.73706    
O116     O      0.680570000000     0.506470000000     0.916800000000    -0.690738   
O117     O      0.603340000000     0.510820000000     0.177430000000    -1.10817    
O118     O      0.595390000000     0.503710000000     0.836840000000    -0.343258   
O119     O      0.493610000000     0.678040000000     0.095970000000    -1.20006    
O120     O      0.504790000000     0.335410000000     0.104270000000    -0.371838   
O121     O      0.498300000000     0.337490000000     0.925520000000    -0.20736    
O122     O      0.502830000000     0.680780000000     0.916110000000    -1.10656    
O123     O      0.682390000000     0.597750000000     0.007630000000    -0.735735   
O124     O      0.684000000000     0.421110000000     0.004430000000    -0.691995   
O125     O      0.569800000000     0.440820000000     0.941860000000    -0.850776   
O126     O      0.571890000000     0.576520000000     0.075210000000    -2.1729     
O127     O      0.584970000000     0.440040000000     0.084970000000    -1.7512     
O128     O      0.579890000000     0.584130000000     0.938270000000    -1.71973    
Tb1      Tb     0.006360000000     0.009290000000     0.120340000000     6.39984    
Tb2      Tb     0.011770000000     0.897060000000     0.014960000000     4.33105    
Tb3      Tb     0.010560000000     0.120020000000     0.005120000000     6.37741    
Tb4      Tb     0.899480000000     0.010770000000     0.009800000000     4.28071    
Tb5      Tb     0.123080000000     0.005880000000     0.010040000000     6.39952    
Tb6      Tb     0.016040000000     0.007610000000     0.897460000000     3.1841     
Tb7      Tb     0.010790000000     0.511610000000     0.398540000000     6.44036    
Tb8      Tb     0.012130000000     0.618900000000     0.509800000000     4.23019    
Tb9      Tb     0.006860000000     0.395140000000     0.507350000000     6.33112    
Tb10     Tb     0.898620000000     0.506680000000     0.504520000000     4.35575    
Tb11     Tb     0.121170000000     0.508140000000     0.514070000000     6.63813    
Tb12     Tb     0.010010000000     0.501770000000     0.621420000000     3.10139    
Tb13     Tb     0.507000000000     0.008730000000     0.397880000000     6.5401     
Tb14     Tb     0.398550000000     0.009150000000     0.506210000000     4.38772    
Tb15     Tb     0.621420000000     0.007940000000     0.509790000000     6.1252     
Tb16     Tb     0.512110000000     0.897010000000     0.503150000000     4.41832    
Tb17     Tb     0.506760000000     0.120390000000     0.513040000000     6.28245    
Tb18     Tb     0.512800000000     0.008670000000     0.620800000000     3.23311    
Tb19     Tb     0.394790000000     0.506160000000     0.012600000000     5.6192     
Tb20     Tb     0.506540000000     0.619680000000     0.005670000000     7.17736    
Tb21     Tb     0.509740000000     0.396730000000     0.015270000000     0.399095   
Tb22     Tb     0.510360000000     0.505370000000     0.121620000000     7.40131    
Tb23     Tb     0.505470000000     0.511090000000     0.898780000000     0.549841   
Tb24     Tb     0.620700000000     0.509130000000     0.007350000000     4.10463    


