data_structure

_audit_creation_method RASPA-1.0
_audit_creation_date 2023-5-19
_audit_author_name 'Poobodin Mano'

_cell_length_a    20.1077
_cell_length_b    19.9979
_cell_length_c    20.166
_cell_angle_alpha 90
_cell_angle_beta  90
_cell_angle_gamma 90
_cell_volume      8108.99

_symmetry_cell_setting          triclinic
_symmetry_space_group_name_Hall 'P 1'
_symmetry_space_group_name_H-M  'P 1'
_symmetry_Int_Tables_number     1

_symmetry_equiv_pos_as_xyz 'x,y,z'

loop_
_atom_site_label
_atom_site_type_symbol
_atom_site_fract_x
_atom_site_fract_y
_atom_site_fract_z
_atom_site_charge
C1       C      0.037860000000     0.168580000000     0.157390000000     0.721195   
C2       C      0.992410000000     0.860060000000     0.165380000000     0.691837   
C3       C      0.848440000000     0.041840000000     0.156900000000     0.697181   
C4       C      0.155920000000     0.017050000000     0.165640000000     0.749738   
C5       C      0.997270000000     0.857720000000     0.860260000000     0.562984   
C6       C      0.037850000000     0.163800000000     0.849830000000     0.673037   
C7       C      0.847750000000     0.869780000000     0.995520000000     0.607292   
C8       C      0.152610000000     0.850390000000     0.035150000000     0.716511   
C9       C      0.168600000000     0.160330000000     0.029120000000     0.737936   
C10      C      0.860820000000     0.177410000000     0.005720000000     0.687966   
C11      C      0.862070000000     0.019930000000     0.851480000000     0.589719   
C12      C      0.168560000000     0.011780000000     0.857940000000     0.644575   
C13      C      0.026150000000     0.361920000000     0.353180000000     0.745335   
C14      C      0.022250000000     0.673040000000     0.359630000000     0.672131   
C15      C      0.854860000000     0.523420000000     0.354690000000     0.70188    
C16      C      0.164830000000     0.496440000000     0.358380000000     0.749362   
C17      C      0.009680000000     0.662020000000     0.664900000000     0.583746   
C18      C      0.009230000000     0.352840000000     0.661530000000     0.641585   
C19      C      0.861260000000     0.669140000000     0.518430000000     0.610257   
C20      C      0.168530000000     0.665140000000     0.506640000000     0.704994   
C21      C      0.157280000000     0.355760000000     0.481900000000     0.714763   
C22      C      0.850240000000     0.360970000000     0.485050000000     0.706205   
C23      C      0.856770000000     0.516300000000     0.661600000000     0.579635   
C24      C      0.162790000000     0.483820000000     0.664290000000     0.674073   
C25      C      0.659180000000     0.036630000000     0.353870000000     0.630762   
C26      C      0.350380000000     0.001000000000     0.360650000000     0.674677   
C27      C      0.474400000000     0.860350000000     0.356520000000     0.63804    
C28      C      0.520630000000     0.170610000000     0.362940000000     0.673903   
C29      C      0.361910000000     0.994520000000     0.667530000000     0.603353   
C30      C      0.665670000000     0.011920000000     0.659240000000     0.550215   
C31      C      0.360480000000     0.857960000000     0.484920000000     0.598467   
C32      C      0.350510000000     0.166370000000     0.508710000000     0.646061   
C33      C      0.656740000000     0.164770000000     0.493040000000     0.573536   
C34      C      0.668070000000     0.856460000000     0.487850000000     0.617915   
C35      C      0.519130000000     0.854050000000     0.660300000000     0.582311   
C36      C      0.514550000000     0.159610000000     0.667340000000     0.565776   
C37      C      0.364470000000     0.354440000000     0.038370000000     0.717479   
C38      C      0.672260000000     0.368830000000     0.025890000000     0.712871   
C39      C      0.520760000000     0.355780000000     0.858350000000     0.699978   
C40      C      0.506840000000     0.364970000000     0.166620000000     0.755768   
C41      C      0.653390000000     0.675000000000     0.005410000000     0.566159   
C42      C      0.346350000000     0.663520000000     0.014800000000     0.642336   
C43      C      0.660400000000     0.526910000000     0.857060000000     0.578717   
C44      C      0.664270000000     0.508560000000     0.163950000000     0.703471   
C45      C      0.357470000000     0.485590000000     0.162950000000     0.710467   
C46      C      0.354770000000     0.493920000000     0.855630000000     0.684243   
C47      C      0.502840000000     0.663890000000     0.856210000000     0.588627   
C48      C      0.491620000000     0.674010000000     0.162190000000     0.67533    
C49      C      0.536640000000     0.250060000000     0.197910000000     0.0102451  
C50      C      0.529920000000     0.339980000000     0.283890000000    -0.0667569  
C51      C      0.506850000000     0.200150000000     0.246110000000     0.0159497  
C52      C      0.503400000000     0.289820000000     0.334570000000     0.330601   
C53      C      0.450080000000     0.742830000000     0.325500000000    -0.004653   
C54      C      0.438380000000     0.833030000000     0.241700000000    -0.087748   
C55      C      0.497260000000     0.704510000000     0.280370000000     0.0241844  
C56      C      0.482830000000     0.794690000000     0.193030000000     0.332962   
C57      C      0.534070000000     0.734520000000     0.690720000000     8.1671e-05 
C58      C      0.538670000000     0.823800000000     0.777450000000    -0.0907927  
C59      C      0.491240000000     0.691480000000     0.736960000000     0.00639668 
C60      C      0.492540000000     0.783600000000     0.821900000000     0.333832   
C61      C      0.498250000000     0.277670000000     0.698780000000    -0.00633181 
C62      C      0.507540000000     0.188310000000     0.786340000000    -0.0972829  
C63      C      0.539870000000     0.324250000000     0.741560000000     0.01559    
C64      C      0.547360000000     0.236630000000     0.829670000000     0.346676   
C65      C      0.686620000000     0.284660000000     0.502550000000    -0.012043   
C66      C      0.775570000000     0.195960000000     0.491560000000    -0.0941497  
C67      C      0.731450000000     0.333440000000     0.464220000000     0.0169707  
C68      C      0.817040000000     0.244850000000     0.450710000000     0.345601   
C69      C      0.701440000000     0.737170000000     0.479570000000     0.00121235 
C70      C      0.787440000000     0.827550000000     0.473340000000    -0.0851486  
C71      C      0.742890000000     0.701270000000     0.532190000000     0.00783646 
C72      C      0.829510000000     0.790820000000     0.525250000000     0.332429   
C73      C      0.187250000000     0.235960000000     0.464830000000     0.00931726 
C74      C      0.274270000000     0.324340000000     0.458140000000    -0.0807354  
C75      C      0.230760000000     0.195890000000     0.513220000000     0.00627116 
C76      C      0.317160000000     0.287070000000     0.508430000000     0.335869   
C77      C      0.242870000000     0.826360000000     0.463120000000    -0.00140861 
C78      C      0.331140000000     0.738900000000     0.464880000000    -0.0856403  
C79      C      0.200310000000     0.784600000000     0.510350000000     0.0101282  
C80      C      0.289290000000     0.695780000000     0.511660000000     0.340606   
C81      C      0.694860000000     0.490780000000     0.281700000000     0.0116484  
C82      C      0.782640000000     0.491950000000     0.193490000000    -0.0826037  
C83      C      0.736740000000     0.538220000000     0.323720000000     0.00910048 
C84      C      0.824360000000     0.539800000000     0.235170000000     0.342565   
C85      C      0.240440000000     0.459280000000     0.194280000000     0.0102897  
C86      C      0.329210000000     0.459240000000     0.280270000000    -0.0773156  
C87      C      0.195270000000     0.500730000000     0.239640000000     0.00965503 
C88      C      0.285200000000     0.500910000000     0.326630000000     0.340609   
C89      C      0.235950000000     0.499930000000     0.825030000000     0.0121058  
C90      C      0.325430000000     0.494010000000     0.736780000000    -0.084877   
C91      C      0.191070000000     0.457170000000     0.780990000000     0.00217558 
C92      C      0.279290000000     0.450460000000     0.695010000000     0.342745   
C93      C      0.690090000000     0.546190000000     0.738580000000    -0.00369597 
C94      C      0.777400000000     0.551630000000     0.826010000000    -0.0855861  
C95      C      0.737800000000     0.508160000000     0.692500000000     0.0064512  
C96      C      0.825910000000     0.512890000000     0.781650000000     0.327954   
C97      C      0.682050000000     0.795630000000     0.015200000000    -0.0144853  
C98      C      0.771680000000     0.707460000000     0.009020000000    -0.0936158  
C99      C      0.727990000000     0.843820000000     0.976840000000     0.0117798  
C100     C      0.812270000000     0.753560000000     0.964900000000     0.340752   
C101     C      0.832920000000     0.298080000000     0.994970000000     0.0122141  
C102     C      0.742820000000     0.210570000000     0.000140000000    -0.0933441  
C103     C      0.791880000000     0.342120000000     0.042090000000     0.00643972 
C104     C      0.707170000000     0.251730000000     0.052250000000     0.354618   
C105     C      0.311130000000     0.781820000000     0.013010000000    -0.0153482  
C106     C      0.225780000000     0.689280000000     0.008190000000    -0.0791232  
C107     C      0.267820000000     0.818120000000     0.063190000000     0.0310811  
C108     C      0.181250000000     0.729530000000     0.055340000000     0.333947   
C109     C      0.337900000000     0.234910000000     0.064230000000     0.00330016 
C110     C      0.249890000000     0.321830000000     0.069670000000    -0.0798658  
C111     C      0.289060000000     0.186840000000     0.028970000000     0.0134176  
C112     C      0.203650000000     0.279760000000     0.027090000000     0.342415   
C113     C      0.698340000000     0.998770000000     0.776520000000    -0.00157121 
C114     C      0.784500000000     0.995500000000     0.686520000000    -0.0809253  
C115     C      0.745270000000     0.039590000000     0.819660000000     0.00736427 
C116     C      0.833100000000     0.033350000000     0.731410000000     0.327047   
C117     C      0.202380000000     0.024810000000     0.740600000000    -0.0102474  
C118     C      0.288690000000     0.019480000000     0.830630000000    -0.0758738  
C119     C      0.244040000000     0.977340000000     0.698520000000     0.0158219  
C120     C      0.331150000000     0.973670000000     0.786760000000     0.32846    
C121     C      0.182290000000     0.992780000000     0.282840000000     0.0209829  
C122     C      0.271200000000     0.991220000000     0.195770000000    -0.0656876  
C123     C      0.232600000000     0.019690000000     0.333250000000     0.000846872
C124     C      0.319690000000     0.023140000000     0.243630000000     0.335423   
C125     C      0.777000000000     0.035980000000     0.320640000000    -0.00776208 
C126     C      0.684840000000     0.037220000000     0.234460000000    -0.0820207  
C127     C      0.820640000000     0.074690000000     0.272110000000     0.021705   
C128     C      0.731470000000     0.074340000000     0.187060000000     0.334255   
C129     C      0.004620000000     0.320270000000     0.779950000000    -0.0101969  
C130     C      0.007180000000     0.232210000000     0.690480000000    -0.0806814  
C131     C      0.057700000000     0.281670000000     0.818020000000     0.0214021  
C132     C      0.059380000000     0.193900000000     0.730560000000     0.33275    
C133     C      0.977830000000     0.738260000000     0.830570000000    -0.00295952 
C134     C      0.976150000000     0.826480000000     0.743220000000    -0.0936019  
C135     C      0.017120000000     0.691760000000     0.784080000000     0.000738612
C136     C      0.017930000000     0.782530000000     0.697400000000     0.33485    
C137     C      0.031060000000     0.793200000000     0.327950000000    -0.00829488 
C138     C      0.034850000000     0.703620000000     0.241210000000    -0.0776017  
C139     C      0.981280000000     0.832490000000     0.285150000000     0.0222506  
C140     C      0.981870000000     0.740280000000     0.201270000000     0.339042   
C141     C      0.066980000000     0.198470000000     0.273740000000     0.00597421 
C142     C      0.064180000000     0.286500000000     0.186780000000    -0.0804954  
C143     C      0.026650000000     0.242860000000     0.320780000000     0.0131551  
C144     C      0.024850000000     0.333140000000     0.232740000000     0.338978   
F1       F      0.530480000000     0.306260000000     0.395680000000    -0.422697   
F2       F      0.458410000000     0.805640000000     0.129680000000    -0.432593   
F3       F      0.507030000000     0.800030000000     0.887080000000    -0.425502   
F4       F      0.534650000000     0.221480000000     0.895500000000    -0.429429   
F5       F      0.883560000000     0.227980000000     0.457000000000    -0.44705    
F6       F      0.895940000000     0.804860000000     0.513580000000    -0.413912   
F7       F      0.383200000000     0.301460000000     0.494980000000    -0.411618   
F8       F      0.302620000000     0.629290000000     0.497610000000    -0.418735   
F9       F      0.890840000000     0.528960000000     0.220700000000    -0.426254   
F10      F      0.299830000000     0.482730000000     0.391230000000    -0.417699   
F11      F      0.295190000000     0.458670000000     0.628670000000    -0.422275   
F12      F      0.889250000000     0.536760000000     0.795020000000    -0.434598   
F13      F      0.878670000000     0.735780000000     0.969720000000    -0.418159   
F14      F      0.640250000000     0.235310000000     0.052460000000    -0.428167   
F15      F      0.115290000000     0.715560000000     0.041200000000    -0.409148   
F16      F      0.139100000000     0.296130000000     0.044610000000    -0.444474   
F17      F      0.896710000000     0.010810000000     0.717250000000    -0.41929    
F18      F      0.397560000000     0.984460000000     0.801610000000    -0.42583    
F19      F      0.382890000000     0.002150000000     0.225810000000    -0.448484   
F20      F      0.714440000000     0.057770000000     0.122560000000    -0.432372   
F21      F      0.054260000000     0.126270000000     0.716690000000    -0.427202   
F22      F      0.000280000000     0.797990000000     0.632760000000    -0.409298   
F23      F      0.988880000000     0.723510000000     0.135000000000    -0.39464    
F24      F      0.045740000000     0.397930000000     0.220210000000    -0.43121    
H1       H      0.956150000000     0.970310000000     0.057500000000    -1.26793    
H2       H      0.048980000000     0.052940000000     0.048650000000    -1.0806     
H3       H      0.957910000000     0.129430000000     0.943360000000    -0.533517   
H4       H      0.119550000000     0.945030000000     0.954830000000    -0.529826   
H5       H      0.964360000000     0.562170000000     0.461170000000    -1.25208    
H6       H      0.048780000000     0.471920000000     0.469230000000    -1.09869    
H7       H      0.944420000000     0.398660000000     0.564140000000    -0.525861   
H8       H      0.123930000000     0.566810000000     0.572790000000    -0.535046   
H9       H      0.469650000000     0.971710000000     0.467910000000    -0.708916   
H10      H      0.546500000000     0.051820000000     0.467800000000    -1.61394    
H11      H      0.623140000000     0.948480000000     0.561690000000    -0.22077    
H12      H      0.447510000000     0.119090000000     0.572140000000    -0.298305   
H13      H      0.558710000000     0.466050000000     0.964300000000    -1.28578    
H14      H      0.470810000000     0.473710000000     0.051070000000    -1.11416    
H15      H      0.393430000000     0.567030000000     0.949590000000    -0.526661   
H16      H      0.566460000000     0.579530000000     0.122060000000    -0.553037   
H17      H      0.584670000000     0.344620000000     0.290550000000     0.0717403  
H18      H      0.591790000000     0.246230000000     0.200360000000     0.0539346  
H19      H      0.528320000000     0.150310000000     0.234260000000     0.0529906  
H20      H      0.507660000000     0.389580000000     0.295190000000     0.0829412  
H21      H      0.448490000000     0.295790000000     0.337850000000     0.00142153 
H22      H      0.520990000000     0.235600000000     0.147020000000     0.0706205  
H23      H      0.452330000000     0.197260000000     0.237110000000     0.0301268  
H24      H      0.385720000000     0.819210000000     0.231690000000     0.0805425  
H25      H      0.398570000000     0.725310000000     0.315380000000     0.0385889  
H26      H      0.490490000000     0.650310000000     0.290370000000     0.0392012  
H27      H      0.443620000000     0.887400000000     0.232140000000     0.118837   
H28      H      0.533810000000     0.816060000000     0.195800000000    -0.011809   
H29      H      0.462040000000     0.730850000000     0.377910000000     0.0495948  
H30      H      0.549190000000     0.717620000000     0.294210000000     0.0256589  
H31      H      0.590940000000     0.811430000000     0.790780000000     0.0794677  
H32      H      0.586940000000     0.719510000000     0.697230000000     0.0366087  
H33      H      0.503700000000     0.638140000000     0.727900000000     0.047068   
H34      H      0.531110000000     0.877790000000     0.787970000000     0.111271   
H35      H      0.440480000000     0.799140000000     0.811410000000     0.001833   
H36      H      0.519820000000     0.723760000000     0.638550000000     0.0431037  
H37      H      0.438240000000     0.698630000000     0.722870000000     0.038781   
H38      H      0.454520000000     0.190150000000     0.801990000000     0.0908402  
H39      H      0.444790000000     0.288500000000     0.708080000000     0.0519418  
H40      H      0.525520000000     0.376590000000     0.729910000000     0.0460318  
H41      H      0.526050000000     0.136740000000     0.795550000000     0.102608   
H42      H      0.601110000000     0.227590000000     0.820200000000    -0.0159412  
H43      H      0.508670000000     0.289450000000     0.645950000000     0.0648615  
H44      H      0.593010000000     0.317980000000     0.727510000000     0.0292903  
H45      H      0.793290000000     0.197320000000     0.543790000000     0.0826708  
H46      H      0.692250000000     0.295000000000     0.556440000000     0.0417835  
H47      H      0.721400000000     0.384960000000     0.482250000000     0.0428834  
H48      H      0.784700000000     0.144760000000     0.472110000000     0.0888672  
H49      H      0.803070000000     0.238200000000     0.397720000000    -0.0190282  
H50      H      0.634090000000     0.295420000000     0.489200000000     0.0826067  
H51      H      0.717150000000     0.331510000000     0.410960000000     0.0386046  
H52      H      0.804730000000     0.811920000000     0.423290000000     0.0716211  
H53      H      0.714960000000     0.716440000000     0.430200000000     0.0320976  
H54      H      0.732560000000     0.646810000000     0.529210000000     0.0427006  
H55      H      0.796300000000     0.882190000000     0.477940000000     0.0878501  
H56      H      0.816310000000     0.811190000000     0.574860000000     0.00108243 
H57      H      0.647980000000     0.726240000000     0.488300000000     0.0405952  
H58      H      0.725870000000     0.718570000000     0.581800000000     0.0348875  
H59      H      0.289160000000     0.308160000000     0.407480000000     0.0796174  
H60      H      0.197650000000     0.217850000000     0.413720000000     0.0276574  
H61      H      0.221940000000     0.141790000000     0.504240000000     0.0431848  
H62      H      0.284700000000     0.378610000000     0.462330000000     0.140839   
H63      H      0.305360000000     0.306890000000     0.558620000000     0.0071142  
H64      H      0.134070000000     0.225660000000     0.475700000000     0.0461444  
H65      H      0.213920000000     0.207180000000     0.564530000000     0.0392655  
H66      H      0.320090000000     0.723290000000     0.413110000000     0.075226   
H67      H      0.228260000000     0.813770000000     0.411400000000     0.0350807  
H68      H      0.147200000000     0.794740000000     0.498990000000     0.058835   
H69      H      0.384550000000     0.728670000000     0.474470000000     0.0868237  
H70      H      0.305710000000     0.706020000000     0.563330000000    -0.0108426  
H71      H      0.231710000000     0.880160000000     0.471160000000     0.0478265  
H72      H      0.209800000000     0.802130000000     0.561830000000     0.0395617  
H73      H      0.798730000000     0.439900000000     0.204540000000     0.0781744  
H74      H      0.706450000000     0.438610000000     0.296960000000     0.0348936  
H75      H      0.726080000000     0.528170000000     0.376830000000     0.0425071  
H76      H      0.792800000000     0.501630000000     0.140190000000     0.0925265  
H77      H      0.811740000000     0.591760000000     0.220030000000    -0.0109831  
H78      H      0.641450000000     0.499960000000     0.292400000000     0.0407911  
H79      H      0.720580000000     0.590310000000     0.313000000000     0.028678   
H80      H      0.321350000000     0.405470000000     0.292070000000     0.0704985  
H81      H      0.228670000000     0.405570000000     0.202400000000     0.036283   
H82      H      0.143010000000     0.485830000000     0.229820000000     0.0832595  
H83      H      0.382200000000     0.470950000000     0.290720000000     0.0891207  
H84      H      0.299070000000     0.554380000000     0.320390000000    -0.00777677 
H85      H      0.228410000000     0.471510000000     0.141920000000     0.0512624  
H86      H      0.200260000000     0.554260000000     0.225520000000     0.0376223  
H87      H      0.321290000000     0.546620000000     0.719370000000     0.0834998  
H88      H      0.222270000000     0.553330000000     0.817900000000     0.0388194  
H89      H      0.138390000000     0.469870000000     0.791770000000     0.0499374  
H90      H      0.377430000000     0.477290000000     0.728000000000     0.0888091  
H91      H      0.289010000000     0.397340000000     0.708270000000    -0.0128449  
H92      H      0.225490000000     0.486910000000     0.877590000000     0.0432628  
H93      H      0.198570000000     0.403810000000     0.794690000000     0.0343296  
H94      H      0.786220000000     0.606060000000     0.818630000000     0.0839667  
H95      H      0.693490000000     0.600360000000     0.726530000000     0.0381698  
H96      H      0.727130000000     0.523700000000     0.640660000000     0.0419253  
H97      H      0.789190000000     0.540030000000     0.878600000000     0.0899877  
H98      H      0.824120000000     0.459280000000     0.796180000000    -0.0109067  
H99      H      0.638440000000     0.529900000000     0.727520000000     0.0446992  
H100     H      0.726290000000     0.453900000000     0.696220000000     0.0317521  
H101     H      0.788870000000     0.713360000000     0.061120000000     0.0901816  
H102     H      0.686200000000     0.807370000000     0.068930000000     0.0504835  
H103     H      0.718860000000     0.895500000000     0.994930000000     0.0592681  
H104     H      0.782110000000     0.655130000000     0.993630000000     0.100037   
H105     H      0.796480000000     0.744990000000     0.912690000000    -0.0119127  
H106     H      0.629790000000     0.805630000000     0.000220000000     0.0782053  
H107     H      0.713600000000     0.842260000000     0.923600000000     0.0426715  
H108     H      0.722480000000     0.223750000000     0.950520000000     0.0845278  
H109     H      0.822240000000     0.314110000000     0.943250000000     0.0352525  
H110     H      0.800680000000     0.395460000000     0.029470000000     0.0507925  
H111     H      0.731880000000     0.156910000000     0.009200000000     0.117981   
H112     H      0.727870000000     0.238030000000     0.101610000000    -0.0107364  
H113     H      0.886620000000     0.307030000000     0.004470000000     0.0454191  
H114     H      0.810420000000     0.333910000000     0.093420000000     0.0385073  
H115     H      0.209340000000     0.699230000000     0.956460000000     0.0793444  
H116     H      0.299780000000     0.801650000000     0.962730000000     0.0553043  
H117     H      0.278790000000     0.872510000000     0.061090000000     0.0467917  
H118     H      0.218100000000     0.635160000000     0.018050000000     0.0830695  
H119     H      0.191630000000     0.712380000000     0.106790000000    -0.00889256 
H120     H      0.364000000000     0.793430000000     0.024110000000     0.0910559  
H121     H      0.281750000000     0.800470000000     0.113660000000     0.0370541  
H122     H      0.240030000000     0.309830000000     0.122640000000     0.0633583  
H123     H      0.336290000000     0.223940000000     0.118280000000     0.0312814  
H124     H      0.296990000000     0.135690000000     0.049110000000     0.0464454  
H125     H      0.237670000000     0.375400000000     0.061950000000     0.087355   
H126     H      0.211030000000     0.294080000000     0.974300000000    -0.0163349  
H127     H      0.389230000000     0.224190000000     0.046820000000     0.0574768  
H128     H      0.302420000000     0.185200000000     0.975490000000     0.0374384  
H129     H      0.794890000000     0.941040000000     0.690980000000     0.086209   
H130     H      0.703830000000     0.945070000000     0.789820000000     0.0452154  
H131     H      0.733320000000     0.028650000000     0.872340000000     0.055961   
H132     H      0.794530000000     0.010110000000     0.634290000000     0.08867    
H133     H      0.830510000000     0.087340000000     0.718420000000    -0.00394745 
H134     H      0.646530000000     0.013980000000     0.788430000000     0.0582375  
H135     H      0.734980000000     0.093550000000     0.811030000000     0.0399803  
H136     H      0.306090000000     0.071820000000     0.823760000000     0.0782446  
H137     H      0.214710000000     0.077030000000     0.726100000000     0.0552008  
H138     H      0.233270000000     0.987280000000     0.645410000000     0.0464681  
H139     H      0.297110000000     0.005750000000     0.883360000000     0.0841486  
H140     H      0.319040000000     0.921040000000     0.799930000000    -0.00567953 
H141     H      0.149090000000     0.016330000000     0.728820000000     0.0803469  
H142     H      0.227850000000     0.925270000000     0.709330000000     0.0366503  
H143     H      0.277660000000     0.935970000000     0.197600000000     0.0698752  
H144     H      0.179000000000     0.937570000000     0.288830000000     0.0271775  
H145     H      0.220950000000     0.997190000000     0.382340000000     0.0444548  
H146     H      0.284470000000     0.008080000000     0.144930000000     0.0822635  
H147     H      0.317330000000     0.078340000000     0.237130000000    -0.0235641  
H148     H      0.132630000000     0.013990000000     0.294900000000     0.0332675  
H149     H      0.225410000000     0.074660000000     0.337760000000     0.0276872  
H150     H      0.684410000000     0.983370000000     0.220670000000     0.0751052  
H151     H      0.790700000000     0.982150000000     0.318180000000     0.0391981  
H152     H      0.873520000000     0.063300000000     0.283280000000     0.0380964  
H153     H      0.633670000000     0.056810000000     0.226620000000     0.0878013  
H154     H      0.722970000000     0.128930000000     0.193580000000    -0.00827136 
H155     H      0.788310000000     0.053920000000     0.371610000000     0.0502578  
H156     H      0.813120000000     0.129040000000     0.281270000000     0.0320382  
H157     H      0.957320000000     0.211430000000     0.702540000000     0.0881118  
H158     H      0.955010000000     0.305140000000     0.799170000000     0.0470536  
H159     H      0.052620000000     0.292620000000     0.871770000000     0.0494339  
H160     H      0.016430000000     0.223620000000     0.636830000000     0.0892189  
H161     H      0.109270000000     0.210930000000     0.713700000000    -0.0139949  
H162     H      0.010980000000     0.374420000000     0.790410000000     0.0584537  
H163     H      0.107350000000     0.300150000000     0.801950000000     0.0311668  
H164     H      0.922740000000     0.817810000000     0.731620000000     0.0961676  
H165     H      0.924050000000     0.726230000000     0.825530000000     0.0692473  
H166     H      0.000890000000     0.639530000000     0.793720000000     0.0759099  
H167     H      0.987120000000     0.879720000000     0.731910000000     0.11879    
H168     H      0.071090000000     0.796200000000     0.704300000000    -0.00798535 
H169     H      0.992570000000     0.727230000000     0.882530000000     0.0922499  
H170     H      0.070650000000     0.695100000000     0.797530000000     0.0440138  
H171     H      0.084580000000     0.719940000000     0.223220000000     0.081299   
H172     H      0.081880000000     0.812090000000     0.316850000000     0.0365141  
H173     H      0.989530000000     0.886770000000     0.293420000000     0.0375486  
H174     H      0.030540000000     0.649130000000     0.231510000000     0.105473   
H175     H      0.932350000000     0.722130000000     0.218060000000    -0.00359639 
H176     H      0.020640000000     0.803460000000     0.381090000000     0.0621587  
H177     H      0.930290000000     0.820520000000     0.302940000000     0.0318491  
H178     H      0.118050000000     0.297960000000     0.192280000000     0.0829368  
H179     H      0.120690000000     0.207020000000     0.283910000000     0.0256605  
H180     H      0.043770000000     0.232490000000     0.372180000000     0.0527511  
H181     H      0.049760000000     0.297900000000     0.134870000000     0.116893   
H182     H      0.971360000000     0.329620000000     0.219140000000    -0.00737793 
H183     H      0.056140000000     0.145220000000     0.285150000000     0.0406686  
H184     H      0.973510000000     0.227710000000     0.317690000000     0.0465123  
N1       N      0.518190000000     0.219840000000     0.315770000000    -0.24206    
N2       N      0.516740000000     0.318510000000     0.215330000000    -0.225072   
N3       N      0.486510000000     0.722520000000     0.209980000000    -0.243652   
N4       N      0.454880000000     0.814390000000     0.310220000000    -0.203033   
N5       N      0.499480000000     0.711360000000     0.807190000000    -0.226335   
N6       N      0.527300000000     0.805770000000     0.707610000000    -0.187701   
N7       N      0.531770000000     0.306830000000     0.812050000000    -0.251235   
N8       N      0.511630000000     0.207220000000     0.715860000000    -0.182591   
N9       N      0.801960000000     0.314420000000     0.470550000000    -0.249327   
N10      N      0.704390000000     0.213940000000     0.490330000000    -0.185786   
N11      N      0.813950000000     0.718380000000     0.524180000000    -0.229202   
N12      N      0.716790000000     0.809190000000     0.480600000000    -0.198359   
N13      N      0.301770000000     0.214520000000     0.507210000000    -0.23544    
N14      N      0.203890000000     0.307540000000     0.468760000000    -0.215881   
N15      N      0.217720000000     0.712820000000     0.506000000000    -0.244255   
N16      N      0.313530000000     0.809900000000     0.472550000000    -0.197539   
N17      N      0.807750000000     0.531360000000     0.306280000000    -0.250178   
N18      N      0.711980000000     0.499150000000     0.211190000000    -0.213926   
N19      N      0.213540000000     0.493440000000     0.310330000000    -0.253554   
N20      N      0.310860000000     0.470850000000     0.210600000000    -0.220585   
N21      N      0.209340000000     0.466500000000     0.710920000000    -0.241186   
N22      N      0.306820000000     0.491330000000     0.807550000000    -0.209837   
N23      N      0.808470000000     0.518170000000     0.710270000000    -0.221832   
N24      N      0.707890000000     0.536720000000     0.808830000000    -0.190581   
N25      N      0.798410000000     0.823890000000     0.982760000000    -0.229727   
N26      N      0.700440000000     0.724730000000     0.005360000000    -0.182416   
N27      N      0.721050000000     0.323030000000     0.039130000000    -0.252947   
N28      N      0.814300000000     0.226990000000     0.001960000000    -0.209152   
N29      N      0.197690000000     0.801380000000     0.050330000000    -0.251075   
N30      N      0.296170000000     0.709630000000     0.014520000000    -0.197303   
N31      N      0.218430000000     0.207420000000     0.034480000000    -0.25747    
N32      N      0.319250000000     0.305400000000     0.054110000000    -0.220507   
N33      N      0.815210000000     0.025680000000     0.802290000000    -0.224144   
N34      N      0.714880000000     0.007460000000     0.705940000000    -0.185243   
N35      N      0.314920000000     0.984360000000     0.715880000000    -0.228023   
N36      N      0.218030000000     0.015660000000     0.811470000000    -0.199323   
N37      N      0.302030000000     0.006790000000     0.313090000000    -0.244995   
N38      N      0.202430000000     0.007670000000     0.214170000000    -0.229708   
N39      N      0.801440000000     0.059240000000     0.203270000000    -0.24946    
N40      N      0.705730000000     0.042850000000     0.304600000000    -0.201085   
N41      N      0.051830000000     0.210140000000     0.801760000000    -0.24214    
N42      N      0.008310000000     0.303690000000     0.708640000000    -0.19998    
N43      N      0.009750000000     0.710530000000     0.713490000000    -0.219457   
N44      N      0.987990000000     0.809050000000     0.813050000000    -0.178432   
N45      N      0.986640000000     0.812930000000     0.214610000000    -0.247898   
N46      N      0.028270000000     0.721340000000     0.311850000000    -0.206078   
N47      N      0.031810000000     0.314680000000     0.303710000000    -0.255383   
N48      N      0.053090000000     0.216040000000     0.204300000000    -0.21954    
O1       O      0.032860000000     0.187710000000     0.093980000000    -1.04583    
O2       O      0.996240000000     0.839390000000     0.102210000000    -0.732392   
O3       O      0.911500000000     0.033640000000     0.177630000000    -1.03585    
O4       O      0.091730000000     0.017840000000     0.182860000000    -1.0745     
O5       O      0.176920000000     0.019090000000     0.102840000000    -1.08668    
O6       O      0.830540000000     0.036720000000     0.092890000000    -0.736566   
O7       O      0.992750000000     0.925210000000     0.182600000000    -1.01513    
O8       O      0.029090000000     0.105420000000     0.177290000000    -1.09214    
O9       O      0.073030000000     0.947790000000     0.083100000000    -2.11751    
O10      O      0.946520000000     0.092530000000     0.075680000000    -2.1128     
O11      O      0.928880000000     0.947890000000     0.082410000000    -0.862804   
O12      O      0.022920000000     0.028160000000     0.022300000000    -2.60288    
O13      O      0.996980000000     0.839470000000     0.924810000000    -0.680504   
O14      O      0.032630000000     0.184820000000     0.913130000000    -0.937831   
O15      O      0.831100000000     0.935310000000     0.999050000000    -0.720522   
O16      O      0.175460000000     0.913120000000     0.027660000000    -0.971571   
O17      O      0.184790000000     0.095170000000     0.027990000000    -1.04545    
O18      O      0.839060000000     0.114190000000     0.007900000000    -0.765345   
O19      O      0.926890000000     0.018180000000     0.834150000000    -0.537915   
O20      O      0.105390000000     0.011080000000     0.836770000000    -0.615362   
O21      O      0.840720000000     0.020220000000     0.915020000000    -0.707021   
O22      O      0.185340000000     0.009700000000     0.922630000000    -0.938631   
O23      O      0.910520000000     0.846930000000     0.002220000000    -0.692168   
O24      O      0.925830000000     0.193830000000     0.004830000000    -0.952771   
O25      O      0.106140000000     0.182090000000     0.022630000000    -1.03629    
O26      O      0.087930000000     0.834560000000     0.030130000000    -0.716125   
O27      O      0.005300000000     0.921460000000     0.839430000000    -0.573574   
O28      O      0.030430000000     0.099730000000     0.832060000000    -0.57926    
O29      O      0.085690000000     0.079770000000     0.946660000000    -2.035      
O30      O      0.946690000000     0.955930000000     0.946360000000    -1.61202    
O31      O      0.942890000000     0.086360000000     0.932360000000    -1.2509     
O32      O      0.076230000000     0.934740000000     0.940670000000    -1.25793    
O33      O      0.022690000000     0.340930000000     0.416100000000    -1.03835    
O34      O      0.021250000000     0.691440000000     0.423760000000    -0.759007   
O35      O      0.919350000000     0.522620000000     0.336950000000    -0.978668   
O36      O      0.101150000000     0.500550000000     0.339160000000    -1.05981    
O37      O      0.183140000000     0.497850000000     0.422070000000    -1.00467    
O38      O      0.834480000000     0.519230000000     0.417980000000    -0.799841   
O39      O      0.017970000000     0.609020000000     0.339700000000    -1.01245    
O40      O      0.021990000000     0.426480000000     0.336280000000    -1.03679    
O41      O      0.084470000000     0.576270000000     0.440940000000    -2.12758    
O42      O      0.944370000000     0.443940000000     0.435360000000    -2.10648    
O43      O      0.940880000000     0.588630000000     0.436260000000    -0.871073   
O44      O      0.023670000000     0.497630000000     0.495600000000    -2.58839    
O45      O      0.010580000000     0.682070000000     0.601070000000    -0.665416   
O46      O      0.008390000000     0.335190000000     0.596960000000    -0.922266   
O47      O      0.839970000000     0.605150000000     0.514890000000    -0.748255   
O48      O      0.185700000000     0.600150000000     0.510010000000    -0.89871    
O49      O      0.178020000000     0.419010000000     0.487670000000    -1.04473    
O50      O      0.832640000000     0.425640000000     0.490950000000    -0.766593   
O51      O      0.920870000000     0.511480000000     0.680810000000    -0.543953   
O52      O      0.099430000000     0.491990000000     0.683790000000    -0.623506   
O53      O      0.837570000000     0.517050000000     0.597100000000    -0.705815   
O54      O      0.181990000000     0.489700000000     0.600750000000    -0.907978   
O55      O      0.926050000000     0.687130000000     0.516510000000    -0.675024   
O56      O      0.913580000000     0.340300000000     0.490860000000    -0.914367   
O57      O      0.093670000000     0.337220000000     0.488490000000    -1.04351    
O58      O      0.104970000000     0.685540000000     0.505490000000    -0.75924    
O59      O      0.011140000000     0.596860000000     0.683350000000    -0.563355   
O60      O      0.009280000000     0.416510000000     0.682090000000    -0.622271   
O61      O      0.077770000000     0.436350000000     0.570680000000    -2.01229    
O62      O      0.950450000000     0.572680000000     0.571940000000    -1.59729    
O63      O      0.933790000000     0.442030000000     0.578580000000    -1.24999    
O64      O      0.080940000000     0.580970000000     0.584500000000    -1.25155    
O65      O      0.679810000000     0.029510000000     0.416300000000    -0.76447    
O66      O      0.332710000000     0.001590000000     0.424360000000    -0.853193   
O67      O      0.477350000000     0.924450000000     0.338810000000    -0.973179   
O68      O      0.524300000000     0.107390000000     0.342510000000    -0.972098   
O69      O      0.514500000000     0.187520000000     0.426430000000    -0.768854   
O70      O      0.488580000000     0.838920000000     0.417380000000    -0.879997   
O71      O      0.413440000000     0.999740000000     0.340980000000    -0.948976   
O72      O      0.595260000000     0.034780000000     0.336570000000    -0.95986    
O73      O      0.436110000000     0.082710000000     0.436010000000    -1.73092    
O74      O      0.578120000000     0.942430000000     0.426910000000    -1.71239    
O75      O      0.496380000000     0.997960000000     0.493160000000    -2.51899    
O76      O      0.521180000000     0.023930000000     0.492630000000     0.425653   
O77      O      0.341070000000     0.001660000000     0.604380000000    -0.766241   
O78      O      0.683050000000     0.011950000000     0.594580000000    -0.671269   
O79      O      0.423950000000     0.838640000000     0.490790000000    -0.827923   
O80      O      0.414210000000     0.185240000000     0.506770000000    -0.717733   
O81      O      0.592910000000     0.183180000000     0.498530000000    -0.747431   
O82      O      0.604840000000     0.836490000000     0.493900000000    -0.829546   
O83      O      0.515490000000     0.917740000000     0.680680000000    -0.590214   
O84      O      0.515450000000     0.094840000000     0.685110000000    -0.585907   
O85      O      0.519560000000     0.836110000000     0.595750000000    -0.767123   
O86      O      0.511790000000     0.180140000000     0.603880000000    -0.716818   
O87      O      0.340450000000     0.921550000000     0.489800000000    -0.828072   
O88      O      0.685480000000     0.920990000000     0.489520000000    -0.73028    
O89      O      0.676920000000     0.100870000000     0.492760000000    -0.723189   
O90      O      0.332940000000     0.101970000000     0.513480000000    -0.803658   
O91      O      0.426230000000     0.996450000000     0.684970000000    -0.557016   
O92      O      0.602280000000     0.011510000000     0.680090000000    -0.589769   
O93      O      0.577760000000     0.077600000000     0.570210000000    -1.49974    
O94      O      0.444220000000     0.939090000000     0.570360000000    -1.54521    
O95      O      0.582490000000     0.932630000000     0.577670000000    -1.26275    
O96      O      0.433290000000     0.077240000000     0.586820000000    -1.22893    
O97      O      0.342020000000     0.416960000000     0.031270000000    -1.05629    
O98      O      0.689230000000     0.433520000000     0.020740000000    -0.800295   
O99      O      0.521290000000     0.338860000000     0.922810000000    -1.00271    
O100     O      0.508280000000     0.344500000000     0.103520000000    -1.07507    
O101     O      0.502140000000     0.429080000000     0.184410000000    -1.0886     
O102     O      0.513560000000     0.419150000000     0.837320000000    -0.796926   
O103     O      0.609270000000     0.347030000000     0.020810000000    -0.980577   
O104     O      0.428580000000     0.337910000000     0.031620000000    -1.07902    
O105     O      0.575350000000     0.448690000000     0.082880000000    -2.1642     
O106     O      0.439810000000     0.437180000000     0.947960000000    -2.10194    
O107     O      0.584930000000     0.441240000000     0.940500000000    -0.872288   
O108     O      0.494950000000     0.500640000000     0.024980000000    -2.60491    
O109     O      0.675200000000     0.611160000000     0.005810000000    -0.734621   
O110     O      0.330420000000     0.598080000000     0.014500000000    -0.927265   
O111     O      0.596300000000     0.520410000000     0.837770000000    -0.728087   
O112     O      0.600360000000     0.512100000000     0.183320000000    -0.972784   
O113     O      0.420740000000     0.494010000000     0.181870000000    -1.08013    
O114     O      0.418830000000     0.495700000000     0.836890000000    -0.768972   
O115     O      0.499860000000     0.684490000000     0.919830000000    -0.536579   
O116     O      0.493050000000     0.692240000000     0.098220000000    -0.581609   
O117     O      0.506220000000     0.598920000000     0.838030000000    -0.712395   
O118     O      0.496900000000     0.609930000000     0.181870000000    -0.983453   
O119     O      0.680330000000     0.525530000000     0.921230000000    -0.740291   
O120     O      0.335380000000     0.497550000000     0.919410000000    -0.949954   
O121     O      0.337470000000     0.490370000000     0.099800000000    -1.03875    
O122     O      0.683260000000     0.511820000000     0.100270000000    -0.77557    
O123     O      0.588370000000     0.692190000000     0.007960000000    -0.553461   
O124     O      0.409220000000     0.685820000000     0.013360000000    -0.596142   
O125     O      0.433740000000     0.576000000000     0.080610000000    -2.01965    
O126     O      0.565700000000     0.578270000000     0.948910000000    -1.60357    
O127     O      0.435910000000     0.581580000000     0.936900000000    -1.22796    
O128     O      0.578040000000     0.592110000000     0.078700000000    -1.26524    
Tb1      Tb     0.002810000000     0.015780000000     0.120560000000     6.44217    
Tb2      Tb     0.003560000000     0.902290000000     0.014700000000     4.38473    
Tb3      Tb     0.014010000000     0.127850000000     0.004920000000     6.41372    
Tb4      Tb     0.897240000000     0.023030000000     0.008370000000     4.28825    
Tb5      Tb     0.121110000000     0.006690000000     0.011500000000     6.36784    
Tb6      Tb     0.015950000000     0.014260000000     0.897260000000     3.19995    
Tb7      Tb     0.010050000000     0.516400000000     0.397450000000     6.48103    
Tb8      Tb     0.015330000000     0.623950000000     0.508850000000     4.30668    
Tb9      Tb     0.005120000000     0.398270000000     0.506900000000     6.30764    
Tb10     Tb     0.898070000000     0.512990000000     0.504780000000     4.34787    
Tb11     Tb     0.122760000000     0.509790000000     0.511470000000     6.42738    
Tb12     Tb     0.011830000000     0.505580000000     0.620830000000     3.14649    
Tb13     Tb     0.506000000000     0.013800000000     0.394460000000     5.63168    
Tb14     Tb     0.396850000000     0.012610000000     0.510710000000     4.53689    
Tb15     Tb     0.620820000000     0.007670000000     0.504250000000     3.9913     
Tb16     Tb     0.514640000000     0.897540000000     0.504070000000     4.71475    
Tb17     Tb     0.503000000000     0.122600000000     0.511720000000     4.37726    
Tb18     Tb     0.512240000000     0.007210000000     0.620050000000     3.08466    
Tb19     Tb     0.515330000000     0.401840000000     0.011690000000     6.55604    
Tb20     Tb     0.620120000000     0.516690000000     0.012430000000     4.43802    
Tb21     Tb     0.395500000000     0.509440000000     0.009740000000     6.27584    
Tb22     Tb     0.506810000000     0.507830000000     0.899560000000     4.30917    
Tb23     Tb     0.509380000000     0.518200000000     0.123220000000     6.54556    
Tb24     Tb     0.499920000000     0.626580000000     0.012070000000     3.11472    


