data_structure

_audit_creation_method RASPA-1.0
_audit_creation_date 2023-5-19
_audit_author_name 'Poobodin Mano'

_cell_length_a    20.2283
_cell_length_b    22.5515
_cell_length_c    21.109
_cell_angle_alpha 90
_cell_angle_beta  90
_cell_angle_gamma 90
_cell_volume      9629.47

_symmetry_cell_setting          triclinic
_symmetry_space_group_name_Hall 'P 1'
_symmetry_space_group_name_H-M  'P 1'
_symmetry_Int_Tables_number     1

_symmetry_equiv_pos_as_xyz 'x,y,z'

loop_
_atom_site_label
_atom_site_type_symbol
_atom_site_fract_x
_atom_site_fract_y
_atom_site_fract_z
_atom_site_charge
C1       C      0.210950000000     0.256670000000     0.209620000000     0.640363   
C2       C      0.170630000000     0.986350000000     0.277810000000     0.63825    
C3       C      0.055150000000     0.099170000000     0.318370000000     0.607888   
C4       C      0.327640000000     0.136820000000     0.175210000000     0.629281   
C5       C      0.060590000000     0.952470000000     0.004560000000     0.567895   
C6       C      0.044710000000     0.221510000000     0.975730000000     0.591563   
C7       C      0.003650000000     0.971090000000     0.215680000000     0.57058    
C8       C      0.275660000000     0.966700000000     0.081220000000     0.620504   
C9       C      0.247740000000     0.239380000000     0.051890000000     0.611183   
C10      C      0.981510000000     0.241090000000     0.187940000000     0.641061   
C11      C      0.918180000000     0.077060000000     0.059110000000     0.563884   
C12      C      0.180710000000     0.097780000000     0.922600000000     0.570019   
C13      C      0.162920000000     0.421250000000     0.443560000000     0.721123   
C14      C      0.088550000000     0.686100000000     0.487850000000     0.676339   
C15      C      0.989440000000     0.550150000000     0.490850000000     0.680918   
C16      C      0.284050000000     0.592940000000     0.433920000000     0.727318   
C17      C      0.175340000000     0.663230000000     0.771950000000     0.603484   
C18      C      0.231260000000     0.398990000000     0.720660000000     0.646934   
C19      C      0.996340000000     0.660350000000     0.632920000000     0.620434   
C20      C      0.295680000000     0.704430000000     0.583850000000     0.692786   
C21      C      0.341150000000     0.438420000000     0.571310000000     0.718198   
C22      C      0.043850000000     0.386970000000     0.596870000000     0.710107   
C23      C      0.052100000000     0.508480000000     0.775760000000     0.610212   
C24      C      0.347350000000     0.550310000000     0.715480000000     0.645692   
C25      C      0.807520000000     0.140090000000     0.593610000000     0.628147   
C26      C      0.558560000000     0.043170000000     0.444090000000     0.62547    
C27      C      0.693140000000     0.951760000000     0.512820000000     0.641817   
C28      C      0.671740000000     0.232500000000     0.531470000000     0.635574   
C29      C      0.405230000000     0.036920000000     0.696610000000     0.56769    
C30      C      0.650770000000     0.115420000000     0.840620000000     0.570983   
C31      C      0.520670000000     0.919790000000     0.570910000000     0.593293   
C32      C      0.452320000000     0.183500000000     0.540970000000     0.634044   
C33      C      0.701690000000     0.241930000000     0.694950000000     0.603406   
C34      C      0.778500000000     0.975350000000     0.713420000000     0.621836   
C35      C      0.562650000000     0.939940000000     0.777100000000     0.586762   
C36      C      0.500310000000     0.201320000000     0.766300000000     0.591668   
C37      C      0.583320000000     0.407310000000     0.143520000000     0.734921   
C38      C      0.493900000000     0.671740000000     0.184460000000     0.670859   
C39      C      0.624130000000     0.542200000000     0.307530000000     0.680642   
C40      C      0.479900000000     0.506760000000     0.050510000000     0.721428   
C41      C      0.754950000000     0.748220000000     0.057690000000     0.572875   
C42      C      0.841380000000     0.494320000000     0.015500000000     0.65141    
C43      C      0.702950000000     0.720140000000     0.242180000000     0.597934   
C44      C      0.533750000000     0.696480000000     0.001750000000     0.701302   
C45      C      0.620120000000     0.437810000000     0.976930000000     0.729811   
C46      C      0.775010000000     0.450880000000     0.226690000000     0.691036   
C47      C      0.864260000000     0.634480000000     0.163070000000     0.580256   
C48      C      0.720310000000     0.604550000000     0.904820000000     0.652938   
C49      C      0.786840000000     0.345890000000     0.360800000000    -0.087043   
C50      C      0.757100000000     0.345330000000     0.427600000000    -0.0908411  
C51      C      0.744010000000     0.281600000000     0.451330000000     0.0376093  
C52      C      0.796090000000     0.409290000000     0.334380000000     0.0341969  
C53      C      0.724990000000     0.873210000000     0.361740000000    -0.0858548  
C54      C      0.777530000000     0.823420000000     0.363950000000    -0.0841103  
C55      C      0.751660000000     0.762650000000     0.340930000000     0.0303262  
C56      C      0.739170000000     0.924380000000     0.407660000000     0.0355184  
C57      C      0.547930000000     0.820170000000     0.937060000000    -0.0766463  
C58      C      0.545830000000     0.798010000000     0.867640000000    -0.0830811  
C59      C      0.581280000000     0.839830000000     0.821830000000     0.0328847  
C60      C      0.490060000000     0.795270000000     0.975790000000     0.0387223  
C61      C      0.567670000000     0.307790000000     0.833440000000    -0.0675476  
C62      C      0.572240000000     0.292090000000     0.904860000000    -0.0942177  
C63      C      0.620180000000     0.332420000000     0.941240000000     0.0466718  
C64      C      0.496480000000     0.302730000000     0.808220000000     0.031336   
C65      C      0.831620000000     0.317020000000     0.653680000000    -0.0761056  
C66      C      0.906930000000     0.321920000000     0.655220000000    -0.0891678  
C67      C      0.932320000000     0.342300000000     0.590610000000     0.0442701  
C68      C      0.802720000000     0.299970000000     0.718020000000     0.0268399  
C69      C      0.887860000000     0.854310000000     0.687270000000    -0.0829118  
C70      C      0.888230000000     0.785720000000     0.685270000000    -0.0910978  
C71      C      0.944900000000     0.760660000000     0.644330000000     0.0337657  
C72      C      0.834380000000     0.877980000000     0.732740000000     0.0297614  
C73      C      0.448740000000     0.379520000000     0.472540000000    -0.0856189  
C74      C      0.459920000000     0.311880000000     0.478170000000    -0.0747921  
C75      C      0.400880000000     0.278230000000     0.507210000000     0.0384729  
C76      C      0.454750000000     0.413790000000     0.535540000000     0.0390863  
C77      C      0.451140000000     0.830540000000     0.662690000000    -0.0680444  
C78      C      0.387190000000     0.794060000000     0.670700000000    -0.0874346  
C79      C      0.334850000000     0.803580000000     0.618250000000     0.0367654  
C80      C      0.490860000000     0.818040000000     0.601210000000     0.0291606  
C81      C      0.949570000000     0.599460000000     0.281990000000    -0.0723249  
C82      C      0.946880000000     0.605430000000     0.354570000000    -0.0848667  
C83      C      0.934050000000     0.545360000000     0.386260000000     0.0482046  
C84      C      0.942760000000     0.660090000000     0.248790000000     0.0311655  
C85      C      0.501980000000     0.576110000000     0.389490000000    -0.0768386  
C86      C      0.427840000000     0.563700000000     0.387120000000    -0.0741585  
C87      C      0.388840000000     0.621780000000     0.382870000000     0.0442858  
C88      C      0.542290000000     0.518440000000     0.390130000000     0.0419593  
C89      C      0.392710000000     0.516710000000     0.926970000000    -0.0731434  
C90      C      0.399900000000     0.505290000000     0.855420000000    -0.0831685  
C91      C      0.401860000000     0.564110000000     0.819140000000     0.0372074  
C92      C      0.410400000000     0.461710000000     0.966570000000     0.0479483  
C93      C      0.836720000000     0.548990000000     0.825660000000    -0.0778375  
C94      C      0.912110000000     0.552440000000     0.821970000000    -0.0778262  
C95      C      0.943540000000     0.490640000000     0.825300000000     0.0348224  
C96      C      0.805140000000     0.610820000000     0.821110000000     0.0312093  
C97      C      0.877730000000     0.885310000000     0.178220000000    -0.0826558  
C98      C      0.857720000000     0.832340000000     0.137010000000    -0.0812032  
C99      C      0.793720000000     0.844440000000     0.099370000000     0.0263042  
C100     C      0.944370000000     0.875480000000     0.212060000000     0.0254564  
C101     C      0.923670000000     0.346400000000     0.112880000000    -0.0704822  
C102     C      0.936020000000     0.407140000000     0.083300000000    -0.0745838  
C103     C      0.915500000000     0.408150000000     0.013000000000     0.0398595  
C104     C      0.945410000000     0.344540000000     0.182540000000     0.0361298  
C105     C      0.372550000000     0.846680000000     0.138130000000    -0.085473   
C106     C      0.379840000000     0.778920000000     0.146360000000    -0.0836918  
C107     C      0.426500000000     0.763270000000     0.201530000000     0.0341905  
C108     C      0.320860000000     0.863050000000     0.087450000000     0.0296687  
C109     C      0.384850000000     0.306010000000     0.095360000000    -0.0783904  
C110     C      0.459440000000     0.316310000000     0.093690000000    -0.0880666  
C111     C      0.484620000000     0.342560000000     0.156180000000     0.0393143  
C112     C      0.359450000000     0.281100000000     0.032300000000     0.0248301  
C113     C      0.761820000000     0.131200000000     0.031970000000    -0.0827511  
C114     C      0.765320000000     0.121530000000     0.959510000000    -0.0765481  
C115     C      0.721500000000     0.164600000000     0.921840000000     0.028078   
C116     C      0.795090000000     0.081070000000     0.070320000000     0.0267481  
C117     C      0.262470000000     0.123610000000     0.763990000000    -0.0815421  
C118     C      0.233850000000     0.071800000000     0.723760000000    -0.0819259  
C119     C      0.284720000000     0.043890000000     0.678630000000     0.0284964  
C120     C      0.263540000000     0.110490000000     0.835810000000     0.0299351  
C121     C      0.524940000000     0.118910000000     0.310760000000    -0.0828932  
C122     C      0.466560000000     0.101260000000     0.267580000000    -0.0850153  
C123     C      0.419500000000     0.153760000000     0.253610000000     0.0318902  
C124     C      0.569070000000     0.065660000000     0.329190000000     0.0328376  
C125     C      0.960380000000     0.134890000000     0.507320000000    -0.0839137  
C126     C      0.010190000000     0.166730000000     0.463300000000    -0.0882773  
C127     C      0.061410000000     0.124330000000     0.433430000000     0.0333526  
C128     C      0.896240000000     0.171010000000     0.517000000000     0.0315317  
C129     C      0.126210000000     0.293020000000     0.875750000000    -0.0769591  
C130     C      0.158830000000     0.305050000000     0.811820000000    -0.0819572  
C131     C      0.223190000000     0.340710000000     0.819100000000     0.0277673  
C132     C      0.060210000000     0.259590000000     0.868760000000     0.0223794  
C133     C      0.129670000000     0.773210000000     0.894950000000    -0.0897792  
C134     C      0.099210000000     0.835090000000     0.899550000000    -0.083708   
C135     C      0.074090000000     0.848400000000     0.966780000000     0.0311449  
C136     C      0.152120000000     0.758700000000     0.827100000000     0.0345636  
C137     C      0.111270000000     0.807570000000     0.396460000000    -0.084775   
C138     C      0.125370000000     0.874020000000     0.392970000000    -0.0872993  
C139     C      0.163710000000     0.888640000000     0.332260000000     0.0318841  
C140     C      0.070380000000     0.790430000000     0.454770000000     0.0352204  
C141     C      0.288980000000     0.331210000000     0.333790000000    -0.0836754  
C142     C      0.262370000000     0.395430000000     0.327240000000    -0.0710536  
C143     C      0.186330000000     0.399530000000     0.330790000000     0.0347545  
C144     C      0.304870000000     0.301260000000     0.270330000000     0.0332573  
H1       H      0.109670000000     0.072960000000     0.177470000000    -0.85035    
H2       H      0.171940000000     0.142520000000     0.134560000000    -1.35329    
H3       H      0.031430000000     0.193800000000     0.088870000000    -0.365105   
H4       H      0.197000000000     0.042210000000     0.027910000000    -0.271694   
H5       H      0.117370000000     0.578710000000     0.579640000000    -0.736689   
H6       H      0.211590000000     0.516420000000     0.544010000000    -1.60849    
H7       H      0.139590000000     0.441450000000     0.650960000000    -0.73282    
H8       H      0.271500000000     0.607520000000     0.642850000000    -0.701792   
H9       H      0.605750000000     0.041830000000     0.590700000000    -0.871115   
H10      H      0.651250000000     0.125500000000     0.624810000000    -1.32098    
H11      H      0.684320000000     0.045970000000     0.748600000000    -0.255109   
H12      H      0.498670000000     0.160510000000     0.654010000000    -0.333126   
H13      H      0.637600000000     0.609050000000     0.173560000000    -1.24057    
H14      H      0.629410000000     0.533140000000     0.088720000000    -1.05998    
H15      H      0.780880000000     0.504200000000     0.119470000000    -0.521171   
H16      H      0.643820000000     0.641150000000     0.991450000000    -0.532807   
H17      H      0.843090000000     0.428070000000     0.352690000000     0.0192186  
H18      H      0.755170000000     0.438840000000     0.350110000000     0.0303937  
H19      H      0.723360000000     0.253590000000     0.412720000000     0.0167135  
H20      H      0.791130000000     0.260730000000     0.466660000000     0.0226321  
H21      H      0.709510000000     0.370070000000     0.426200000000     0.0431558  
H22      H      0.790880000000     0.368300000000     0.461150000000     0.0411998  
H23      H      0.680540000000     0.322940000000     0.521490000000     0.10499    
H24      H      0.835290000000     0.322560000000     0.360880000000     0.0400099  
H25      H      0.752710000000     0.321020000000     0.329090000000     0.0420759  
H26      H      0.808430000000     0.366500000000     0.243650000000     0.105312   
H27      H      0.714540000000     0.965090000000     0.389480000000     0.0285167  
H28      H      0.793090000000     0.933750000000     0.409550000000     0.0138303  
H29      H      0.793690000000     0.731070000000     0.336980000000     0.0283914  
H30      H      0.717260000000     0.744290000000     0.377010000000     0.0191773  
H31      H      0.795950000000     0.817600000000     0.413180000000     0.0390156  
H32      H      0.820480000000     0.836700000000     0.334250000000     0.0404003  
H33      H      0.696430000000     0.807370000000     0.266310000000     0.105861   
H34      H      0.724190000000     0.892210000000     0.313130000000     0.0373084  
H35      H      0.674870000000     0.855130000000     0.371770000000     0.0458863  
H36      H      0.715900000000     0.865930000000     0.486250000000     0.105956   
H37      H      0.442850000000     0.813400000000     0.956990000000     0.0138047  
H38      H      0.495380000000     0.809330000000     0.026040000000     0.0267688  
H39      H      0.633040000000     0.847470000000     0.837600000000     0.0279725  
H40      H      0.583760000000     0.819170000000     0.774070000000     0.024588   
H41      H      0.493820000000     0.793110000000     0.851190000000     0.0425334  
H42      H      0.569400000000     0.753540000000     0.864930000000     0.0434218  
H43      H      0.508160000000     0.905690000000     0.849960000000     0.107173   
H44      H      0.595580000000     0.806430000000     0.958860000000     0.0505417  
H45      H      0.545940000000     0.869230000000     0.940350000000     0.04234    
H46      H      0.461080000000     0.711700000000     0.934650000000     0.105213   
H47      H      0.494660000000     0.320810000000     0.759220000000     0.0317356  
H48      H      0.462560000000     0.329490000000     0.838270000000     0.0148096  
H49      H      0.624160000000     0.317100000000     0.991180000000     0.0247059  
H50      H      0.670420000000     0.329760000000     0.920060000000     0.0176097  
H51      H      0.588600000000     0.245300000000     0.909860000000     0.0467331  
H52      H      0.523050000000     0.295470000000     0.928220000000     0.0441033  
H53      H      0.560250000000     0.405790000000     0.907160000000     0.110849   
H54      H      0.585630000000     0.353270000000     0.823120000000     0.0372689  
H55      H      0.601020000000     0.277890000000     0.806360000000     0.0550323  
H56      H      0.452090000000     0.224680000000     0.849320000000     0.10456    
H57      H      0.813080000000     0.336140000000     0.752410000000     0.0172247  
H58      H      0.825630000000     0.258140000000     0.735280000000     0.038416   
H59      H      0.912320000000     0.312620000000     0.553330000000     0.0115693  
H60      H      0.914430000000     0.388040000000     0.580720000000     0.0221224  
H61      H      0.928530000000     0.277910000000     0.667010000000     0.0448892  
H62      H      0.922370000000     0.354450000000     0.691980000000     0.0477486  
H63      H      0.025820000000     0.298550000000     0.576380000000     0.109518   
H64      H      0.810040000000     0.360240000000     0.638780000000     0.0380902  
H65      H      0.817150000000     0.282960000000     0.618090000000     0.0408526  
H66      H      0.703750000000     0.332950000000     0.707070000000     0.104605   
H67      H      0.847220000000     0.863090000000     0.781410000000     0.0192289  
H68      H      0.785740000000     0.858270000000     0.720150000000     0.0359741  
H69      H      0.940670000000     0.778660000000     0.595470000000     0.0204481  
H70      H      0.993120000000     0.775620000000     0.663990000000     0.0302138  
H71      H      0.840160000000     0.770020000000     0.665970000000     0.0430708  
H72      H      0.893610000000     0.768100000000     0.734220000000     0.0441214  
H73      H      0.895850000000     0.674780000000     0.643890000000     0.101329   
H74      H      0.937020000000     0.870650000000     0.703150000000     0.0411288  
H75      H      0.878280000000     0.871730000000     0.638850000000     0.0450205  
H76      H      0.872510000000     0.966020000000     0.751630000000     0.103812   
H77      H      0.460820000000     0.461720000000     0.524630000000     0.0251183  
H78      H      0.499240000000     0.398320000000     0.561670000000     0.0171913  
H79      H      0.395570000000     0.289040000000     0.557650000000     0.0292897  
H80      H      0.354720000000     0.290810000000     0.481940000000     0.0131301  
H81      H      0.505730000000     0.303420000000     0.505700000000     0.0564172  
H82      H      0.468240000000     0.294190000000     0.429640000000     0.037517   
H83      H      0.377980000000     0.190320000000     0.473680000000     0.100308   
H84      H      0.487170000000     0.397090000000     0.439930000000     0.0339166  
H85      H      0.400170000000     0.388870000000     0.449950000000     0.0321464  
H86      H      0.394770000000     0.368290000000     0.605200000000     0.114137   
H87      H      0.472920000000     0.777730000000     0.576870000000     0.0177883  
H88      H      0.543340000000     0.809410000000     0.614020000000     0.0333254  
H89      H      0.285410000000     0.809270000000     0.640500000000     0.0255128  
H90      H      0.345930000000     0.844460000000     0.590870000000     0.0181678  
H91      H      0.364830000000     0.806980000000     0.716820000000     0.0404467  
H92      H      0.400180000000     0.746280000000     0.675170000000     0.0458044  
H93      H      0.375230000000     0.748000000000     0.545000000000     0.110513   
H94      H      0.438670000000     0.878440000000     0.666920000000     0.0458844  
H95      H      0.483400000000     0.820330000000     0.703890000000     0.0380271  
H96      H      0.445990000000     0.871300000000     0.527980000000     0.102877   
H97      H      0.990300000000     0.684560000000     0.252740000000     0.0125551  
H98      H      0.903640000000     0.686830000000     0.272440000000     0.028474   
H99      H      0.885050000000     0.528620000000     0.370500000000     0.0134946  
H100     H      0.972780000000     0.513200000000     0.371320000000     0.0236726  
H101     H      0.906640000000     0.636310000000     0.368790000000     0.0421189  
H102     H      0.994640000000     0.623690000000     0.371300000000     0.0579085  
H103     H      0.887710000000     0.551420000000     0.478380000000     0.10358    
H104     H      0.997260000000     0.578770000000     0.267920000000     0.0366781  
H105     H      0.909760000000     0.568940000000     0.266380000000     0.0540385  
H106     H      0.959990000000     0.664750000000     0.147460000000     0.100462   
H107     H      0.519440000000     0.484860000000     0.358260000000     0.0194006  
H108     H      0.543320000000     0.500350000000     0.439100000000     0.00892936 
H109     H      0.400830000000     0.650270000000     0.424390000000     0.0326627  
H110     H      0.402860000000     0.645740000000     0.338850000000     0.00870425 
H111     H      0.413400000000     0.538430000000     0.430170000000     0.0449702  
H112     H      0.416120000000     0.536210000000     0.344800000000     0.0304821  
H113     H      0.293250000000     0.612350000000     0.338170000000     0.101954   
H114     H      0.515300000000     0.603490000000     0.347550000000     0.0398529  
H115     H      0.514130000000     0.602300000000     0.432610000000     0.0375202  
H116     H      0.646700000000     0.534930000000     0.403290000000     0.104196   
H117     H      0.454940000000     0.439750000000     0.946620000000     0.0230523  
H118     H      0.368690000000     0.429630000000     0.964770000000     0.00934932 
H119     H      0.358130000000     0.591470000000     0.832310000000     0.0278729  
H120     H      0.447300000000     0.588700000000     0.833030000000     0.0109046  
H121     H      0.357710000000     0.477740000000     0.838850000000     0.0554353  
H122     H      0.446550000000     0.480900000000     0.845390000000     0.0437426  
H123     H      0.448790000000     0.557410000000     0.727480000000     0.106507   
H124     H      0.424950000000     0.554490000000     0.940480000000     0.0558395  
H125     H      0.341000000000     0.530120000000     0.937650000000     0.0404229  
H126     H      0.390840000000     0.463610000000     0.067370000000     0.104698   
H127     H      0.806650000000     0.625950000000     0.770990000000     0.0141598  
H128     H      0.833120000000     0.643070000000     0.850700000000     0.0324884  
H129     H      0.926080000000     0.467000000000     0.868200000000     0.0162525  
H130     H      0.928480000000     0.464410000000     0.783030000000     0.0266048  
H131     H      0.930820000000     0.579550000000     0.862210000000     0.0473501  
H132     H      0.926690000000     0.574530000000     0.776980000000     0.0467526  
H133     H      0.038640000000     0.494590000000     0.872200000000     0.102705   
H134     H      0.817430000000     0.520830000000     0.786540000000     0.0374311  
H135     H      0.822950000000     0.527660000000     0.871310000000     0.0535399  
H136     H      0.699530000000     0.601970000000     0.808490000000     0.104584   
H137     H      0.982710000000     0.861290000000     0.177430000000     0.0320219  
H138     H      0.937960000000     0.840210000000     0.248330000000     0.0178403  
H139     H      0.750460000000     0.843620000000     0.131910000000     0.0361838  
H140     H      0.797030000000     0.888890000000     0.076800000000     0.0207157  
H141     H      0.850530000000     0.792510000000     0.167370000000     0.0473896  
H142     H      0.898670000000     0.822860000000     0.103280000000     0.0448996  
H143     H      0.824200000000     0.801280000000     0.014170000000     0.102625   
H144     H      0.881890000000     0.925350000000     0.147640000000     0.0457185  
H145     H      0.838550000000     0.893640000000     0.214130000000     0.039954   
H146     H      0.930450000000     0.946140000000     0.278150000000     0.100446   
H147     H      0.914510000000     0.375060000000     0.210980000000     0.0156481  
H148     H      0.997700000000     0.359430000000     0.186570000000     0.0317561  
H149     H      0.957600000000     0.392660000000     0.983520000000     0.0127179  
H150     H      0.872620000000     0.378240000000     0.004480000000     0.024901   
H151     H      0.989320000000     0.418800000000     0.086910000000     0.0382156  
H152     H      0.907780000000     0.440570000000     0.111040000000     0.0579481  
H153     H      0.934410000000     0.495110000000     0.974310000000     0.103496   
H154     H      0.870040000000     0.335690000000     0.110350000000     0.0396532  
H155     H      0.951040000000     0.312580000000     0.084930000000     0.0568593  
H156     H      0.895770000000     0.272260000000     0.231040000000     0.0995848  
H157     H      0.270730000000     0.850350000000     0.104220000000     0.0314732  
H158     H      0.332010000000     0.837390000000     0.043750000000     0.0175111  
H159     H      0.473860000000     0.787820000000     0.196210000000     0.0326266  
H160     H      0.402650000000     0.777850000000     0.246350000000     0.0137577  
H161     H      0.399800000000     0.759600000000     0.101800000000     0.0504726  
H162     H      0.330530000000     0.758870000000     0.155580000000     0.0407842  
H163     H      0.400040000000     0.672740000000     0.224220000000     0.100283   
H164     H      0.357540000000     0.867100000000     0.183880000000     0.0440067  
H165     H      0.421380000000     0.865390000000     0.124380000000     0.0440123  
H166     H      0.368660000000     0.941280000000     0.050530000000     0.103176   
H167     H      0.377340000000     0.234860000000     0.025810000000     0.0363125  
H168     H      0.378240000000     0.309050000000     0.992780000000     0.0182412  
H169     H      0.457360000000     0.384060000000     0.167500000000     0.0296407  
H170     H      0.476090000000     0.309730000000     0.194630000000     0.0125229  
H171     H      0.471600000000     0.347470000000     0.054470000000     0.0366508  
H172     H      0.484970000000     0.273460000000     0.084420000000     0.0401323  
H173     H      0.585190000000     0.315760000000     0.141440000000     0.108512   
H174     H      0.372370000000     0.274450000000     0.134070000000     0.0403846  
H175     H      0.359790000000     0.348950000000     0.105370000000     0.0387268  
H176     H      0.266510000000     0.326370000000     0.027030000000     0.104927   
H177     H      0.760720000000     0.042620000000     0.071400000000     0.01809    
H178     H      0.803750000000     0.096310000000     0.119710000000     0.0294377  
H179     H      0.707750000000     0.203300000000     0.951740000000     0.0164365  
H180     H      0.749830000000     0.182080000000     0.880710000000     0.0339991  
H181     H      0.751770000000     0.074950000000     0.947830000000     0.0511316  
H182     H      0.817290000000     0.128400000000     0.943900000000     0.0499588  
H183     H      0.622700000000     0.130680000000     0.933730000000     0.103305   
H184     H      0.786420000000     0.173930000000     0.043650000000     0.0442384  
H185     H      0.709290000000     0.134530000000     0.047120000000     0.0380857  
H186     H      0.852370000000     0.040080000000     0.996510000000     0.10756    
H187     H      0.287410000000     0.148040000000     0.861160000000     0.0296209  
H188     H      0.293660000000     0.070380000000     0.845820000000     0.0302924  
H189     H      0.261770000000     0.004920000000     0.655100000000     0.0190292  
H190     H      0.298360000000     0.076500000000     0.641270000000     0.0324022  
H191     H      0.191930000000     0.088720000000     0.694880000000     0.0371126  
H192     H      0.213470000000     0.036090000000     0.754420000000     0.0452018  
H193     H      0.335120000000     0.008140000000     0.760310000000     0.106128   
H194     H      0.313410000000     0.135320000000     0.748610000000     0.0524417  
H195     H      0.231980000000     0.163950000000     0.755980000000     0.0410183  
H196     H      0.157280000000     0.099890000000     0.828020000000     0.105806   
H197     H      0.619400000000     0.082210000000     0.340860000000     0.0227312  
H198     H      0.573610000000     0.034910000000     0.288270000000     0.0154007  
H199     H      0.380150000000     0.155580000000     0.290310000000     0.0257788  
H200     H      0.447780000000     0.196010000000     0.255560000000     0.0145428  
H201     H      0.437560000000     0.064970000000     0.289880000000     0.0409217  
H202     H      0.487350000000     0.083760000000     0.222500000000     0.0432079  
H203     H      0.425570000000     0.151300000000     0.151990000000     0.103745   
H204     H      0.555970000000     0.151700000000     0.284970000000     0.0348315  
H205     H      0.506150000000     0.141030000000     0.354310000000     0.0419196  
H206     H      0.495720000000     0.011310000000     0.374670000000     0.104231   
H207     H      0.860090000000     0.159700000000     0.479220000000     0.0278983  
H208     H      0.907750000000     0.218900000000     0.512730000000     0.016395   
H209     H      0.105920000000     0.150170000000     0.419480000000     0.021821   
H210     H      0.076820000000     0.090560000000     0.468810000000     0.0179404  
H211     H      0.036740000000     0.200920000000     0.491480000000     0.0389396  
H212     H      0.983620000000     0.190400000000     0.424660000000     0.0438766  
H213     H      0.984650000000     0.076820000000     0.384400000000     0.103605   
H214     H      0.946610000000     0.090770000000     0.487950000000     0.0396986  
H215     H      0.985270000000     0.126970000000     0.553550000000     0.0424635  
H216     H      0.899640000000     0.171930000000     0.618900000000     0.103943   
H217     H      0.069570000000     0.213410000000     0.852430000000     0.0345642  
H218     H      0.028550000000     0.282830000000     0.833560000000     0.0213263  
H219     H      0.213380000000     0.382990000000     0.844590000000     0.0314832  
H220     H      0.259270000000     0.313920000000     0.846680000000     0.0197854  
H221     H      0.123950000000     0.330490000000     0.781420000000     0.0474664  
H222     H      0.169750000000     0.262110000000     0.788080000000     0.0413     
H223     H      0.269310000000     0.314820000000     0.732340000000     0.110945   
H224     H      0.160320000000     0.266480000000     0.905890000000     0.0484427  
H225     H      0.117100000000     0.336180000000     0.899810000000     0.0446488  
H226     H      0.010230000000     0.301890000000     0.944670000000     0.102834   
H227     H      0.192570000000     0.789260000000     0.812830000000     0.02096    
H228     H      0.110410000000     0.764690000000     0.793310000000     0.0248647  
H229     H      0.036590000000     0.814580000000     0.980060000000     0.020207   
H230     H      0.115760000000     0.846220000000     0.001080000000     0.0314269  
H231     H      0.057210000000     0.838250000000     0.865650000000     0.0418918  
H232     H      0.136830000000     0.868820000000     0.886160000000     0.0479381  
H233     H      0.008500000000     0.915420000000     0.930600000000     0.104824   
H234     H      0.172860000000     0.770360000000     0.927450000000     0.0436158  
H235     H      0.092420000000     0.739760000000     0.910020000000     0.0456264  
H236     H      0.192570000000     0.677980000000     0.866720000000     0.104467   
H237     H      0.022410000000     0.814440000000     0.453160000000     0.0153965  
H238     H      0.097250000000     0.802680000000     0.498840000000     0.0280855  
H239     H      0.211290000000     0.863960000000     0.332550000000     0.0174645  
H240     H      0.134740000000     0.874180000000     0.290210000000     0.036263   
H241     H      0.154790000000     0.887610000000     0.435060000000     0.0414404  
H242     H      0.077970000000     0.899040000000     0.392960000000     0.0435974  
H243     H      0.195820000000     0.972170000000     0.371460000000     0.104593   
H244     H      0.083950000000     0.793940000000     0.353040000000     0.0410414  
H245     H      0.158920000000     0.782910000000     0.397710000000     0.0422319  
H246     H      0.033610000000     0.711930000000     0.410320000000     0.102081   
H247     H      0.320680000000     0.254840000000     0.279240000000     0.0310143  
H248     H      0.347020000000     0.325310000000     0.248330000000     0.0109286  
H249     H      0.170990000000     0.445620000000     0.319270000000     0.0238735  
H250     H      0.163850000000     0.369150000000     0.295470000000     0.0198887  
H251     H      0.279820000000     0.415880000000     0.282330000000     0.0326716  
H252     H      0.283490000000     0.422910000000     0.366070000000     0.0259818  
H253     H      0.160130000000     0.337550000000     0.404240000000     0.108024   
H254     H      0.335570000000     0.332630000000     0.361700000000     0.0328331  
H255     H      0.254520000000     0.302440000000     0.360730000000     0.0408723  
H256     H      0.239830000000     0.344270000000     0.204230000000     0.105765   
N1       N      0.697260000000     0.282050000000     0.504320000000    -0.267837   
N2       N      0.798620000000     0.407440000000     0.264990000000    -0.273782   
N3       N      0.716540000000     0.766850000000     0.280360000000    -0.256939   
N4       N      0.715220000000     0.910210000000     0.471420000000    -0.268523   
N5       N      0.546360000000     0.896450000000     0.818050000000    -0.253817   
N6       N      0.489610000000     0.730750000000     0.970610000000    -0.275211   
N7       N      0.597080000000     0.393870000000     0.939490000000    -0.286837   
N8       N      0.475960000000     0.240600000000     0.808800000000    -0.252675   
N9       N      0.004360000000     0.339070000000     0.588980000000    -0.278927   
N10      N      0.731310000000     0.293830000000     0.710470000000    -0.25791    
N11      N      0.942070000000     0.695390000000     0.640930000000    -0.261914   
N12      N      0.832080000000     0.943350000000     0.732530000000    -0.257584   
N13      N      0.409790000000     0.214050000000     0.503380000000    -0.263932   
N14      N      0.395850000000     0.404220000000     0.574280000000    -0.278634   
N15      N      0.334970000000     0.752500000000     0.575540000000    -0.274682   
N16      N      0.486660000000     0.869240000000     0.558460000000    -0.25432    
N17      N      0.933500000000     0.551320000000     0.455420000000    -0.275661   
N18      N      0.925190000000     0.652810000000     0.181770000000    -0.253099   
N19      N      0.318100000000     0.609090000000     0.381470000000    -0.283888   
N20      N      0.609620000000     0.530850000000     0.369050000000    -0.275864   
N21      N      0.403270000000     0.553910000000     0.750650000000    -0.266856   
N22      N      0.423810000000     0.478150000000     0.032540000000    -0.285815   
N23      N      0.015500000000     0.496560000000     0.827960000000    -0.260052   
N24      N      0.736490000000     0.607720000000     0.842560000000    -0.266783   
N25      N      0.787670000000     0.800000000000     0.049240000000    -0.249731   
N26      N      0.963290000000     0.930750000000     0.243550000000    -0.250372   
N27      N      0.897900000000     0.468570000000     0.994900000000    -0.266817   
N28      N      0.938570000000     0.283850000000     0.206190000000    -0.264441   
N29      N      0.437650000000     0.698840000000     0.204840000000    -0.271212   
N30      N      0.324970000000     0.926520000000     0.071810000000    -0.258301   
N31      N      0.555600000000     0.352930000000     0.150180000000    -0.286628   
N32      N      0.287420000000     0.284240000000     0.032520000000    -0.259701   
N33      N      0.661160000000     0.134520000000     0.900880000000    -0.24958    
N34      N      0.856530000000     0.062420000000     0.039750000000    -0.249477   
N35      N      0.342590000000     0.024060000000     0.714310000000    -0.24915    
N36      N      0.196500000000     0.101890000000     0.860290000000    -0.24906    
N37      N      0.391960000000     0.148260000000     0.189530000000    -0.262961   
N38      N      0.540010000000     0.033900000000     0.383000000000    -0.261664   
N39      N      0.032020000000     0.094590000000     0.378550000000    -0.258831   
N40      N      0.869150000000     0.161000000000     0.580620000000    -0.262882   
N41      N      0.250050000000     0.351750000000     0.756010000000    -0.264106   
N42      N      0.026690000000     0.260140000000     0.929980000000    -0.251388   
N43      N      0.042350000000     0.906640000000     0.966920000000    -0.248009   
N44      N      0.176540000000     0.697710000000     0.824520000000    -0.257755   
N45      N      0.178400000000     0.952050000000     0.330020000000    -0.267614   
N46      N      0.057520000000     0.726800000000     0.451230000000    -0.275523   
N47      N      0.164070000000     0.382810000000     0.394270000000    -0.28161    
N48      N      0.248280000000     0.303890000000     0.227230000000    -0.267477   
O1       O      0.167040000000     0.266030000000     0.164070000000    -0.88697    
O2       O      0.151070000000     0.961290000000     0.223700000000    -0.837082   
O3       O      0.119080000000     0.111580000000     0.308070000000    -0.89146    
O4       O      0.282380000000     0.136200000000     0.221470000000    -0.895044   
O5       O      0.313660000000     0.126560000000     0.114580000000    -0.807818   
O6       O      0.011320000000     0.090760000000     0.272540000000    -0.768262   
O7       O      0.182900000000     0.043870000000     0.284700000000    -0.967441   
O8       O      0.221490000000     0.203880000000     0.236480000000    -0.930272   
O9       O      0.223220000000     0.049850000000     0.162880000000    -1.65038    
O10      O      0.091300000000     0.174210000000     0.211230000000    -1.68168    
O11      O      0.119450000000     0.093600000000     0.141830000000    -1.59256    
O12      O      0.139260000000     0.115640000000     0.128870000000    -0.424549   
O13      O      0.097850000000     0.942050000000     0.056580000000    -0.714798   
O14      O      0.063730000000     0.244790000000     0.031200000000    -0.781214   
O15      O      0.986300000000     0.027840000000     0.221630000000    -0.723996   
O16      O      0.286440000000     0.022830000000     0.063020000000    -0.768393   
O17      O      0.271410000000     0.183790000000     0.052290000000    -0.76363    
O18      O      0.965810000000     0.184480000000     0.198330000000    -0.758381   
O19      O      0.965520000000     0.074020000000     0.015100000000    -0.60622    
O20      O      0.116570000000     0.090480000000     0.935660000000    -0.603569   
O21      O      0.928870000000     0.092330000000     0.120150000000    -0.676919   
O22      O      0.228610000000     0.101950000000     0.967190000000    -0.698253   
O23      O      0.056340000000     0.952040000000     0.182800000000    -0.75878    
O24      O      0.036270000000     0.257670000000     0.157570000000    -0.843945   
O25      O      0.186910000000     0.254600000000     0.070060000000    -0.825237   
O26      O      0.219220000000     0.949090000000     0.108260000000    -0.791417   
O27      O      0.042390000000     0.006530000000     0.985330000000    -0.597673   
O28      O      0.043770000000     0.163130000000     0.963110000000    -0.589543   
O29      O      0.147580000000     0.156020000000     0.033540000000    -1.59334    
O30      O      0.038340000000     0.035820000000     0.106710000000    -1.46619    
O31      O      0.014510000000     0.155360000000     0.086610000000    -1.17461    
O32      O      0.154480000000     0.027540000000     0.036140000000    -1.21998    
O33      O      0.171720000000     0.398300000000     0.501310000000    -1.04534    
O34      O      0.108420000000     0.701630000000     0.545980000000    -0.878799   
O35      O      0.047580000000     0.552380000000     0.460920000000    -0.992389   
O36      O      0.219220000000     0.582220000000     0.427290000000    -1.01721    
O37      O      0.316800000000     0.588890000000     0.489100000000    -0.993803   
O38      O      0.982900000000     0.545610000000     0.553590000000    -0.888443   
O39      O      0.097190000000     0.632570000000     0.462500000000    -1.03644    
O40      O      0.155710000000     0.479740000000     0.431980000000    -0.98203    
O41      O      0.204550000000     0.625730000000     0.535530000000    -2.06616    
O42      O      0.095510000000     0.485270000000     0.542520000000    -2.10393    
O43      O      0.150790000000     0.557910000000     0.596530000000    -2.51914    
O44      O      0.233900000000     0.500940000000     0.513020000000    -1.01925    
O45      O      0.161160000000     0.687740000000     0.715100000000    -0.797812   
O46      O      0.224630000000     0.389370000000     0.658180000000    -0.906275   
O47      O      0.987170000000     0.601450000000     0.631170000000    -0.856119   
O48      O      0.320340000000     0.652130000000     0.565530000000    -0.945916   
O49      O      0.349340000000     0.497460000000     0.565290000000    -0.974644   
O50      O      0.016340000000     0.438850000000     0.614850000000    -0.821609   
O51      O      0.116950000000     0.518200000000     0.783560000000    -0.647264   
O52      O      0.289420000000     0.542710000000     0.746290000000    -0.613459   
O53      O      0.021380000000     0.509150000000     0.719250000000    -0.826161   
O54      O      0.353480000000     0.557580000000     0.652190000000    -0.872044   
O55      O      0.055370000000     0.686460000000     0.627930000000    -0.876903   
O56      O      0.108280000000     0.379940000000     0.584230000000    -0.960316   
O57      O      0.282640000000     0.410890000000     0.580420000000    -0.960424   
O58      O      0.235220000000     0.711270000000     0.609890000000    -0.826404   
O59      O      0.189050000000     0.605850000000     0.780500000000    -0.661519   
O60      O      0.217660000000     0.451000000000     0.750000000000    -0.608352   
O61      O      0.248680000000     0.497890000000     0.642030000000    -2.09041    
O62      O      0.102960000000     0.591650000000     0.685250000000    -1.66415    
O63      O      0.119930000000     0.469980000000     0.675760000000    -1.16325    
O64      O      0.236450000000     0.616160000000     0.669110000000    -1.16322    
O65      O      0.791790000000     0.133540000000     0.654430000000    -0.799113   
O66      O      0.513980000000     0.031370000000     0.488460000000    -0.79721    
O67      O      0.693740000000     0.008690000000     0.495290000000    -0.963891   
O68      O      0.694240000000     0.179070000000     0.514140000000    -0.9144     
O69      O      0.625570000000     0.240950000000     0.575180000000    -0.871372   
O70      O      0.672520000000     0.932650000000     0.568990000000    -0.859105   
O71      O      0.618480000000     0.065640000000     0.456290000000    -0.923524   
O72      O      0.766440000000     0.127330000000     0.545880000000    -0.911088   
O73      O      0.572710000000     0.133090000000     0.540610000000    -1.68316    
O74      O      0.720670000000     0.038660000000     0.615000000000    -1.66375    
O75      O      0.608620000000     0.068450000000     0.622810000000    -1.63127    
O76      O      0.623400000000     0.095110000000     0.633190000000    -0.416934   
O77      O      0.418670000000     0.046600000000     0.634790000000    -0.692681   
O78      O      0.700460000000     0.119300000000     0.798080000000    -0.70309    
O79      O      0.576150000000     0.915470000000     0.605100000000    -0.789584   
O80      O      0.496230000000     0.213160000000     0.576400000000    -0.809772   
O81      O      0.641330000000     0.245620000000     0.669620000000    -0.798098   
O82      O      0.727660000000     0.946680000000     0.687560000000    -0.812695   
O83      O      0.535000000000     0.992750000000     0.787450000000    -0.620746   
O84      O      0.499670000000     0.144030000000     0.782450000000    -0.619207   
O85      O      0.605840000000     0.928480000000     0.729990000000    -0.731375   
O86      O      0.526700000000     0.222380000000     0.712170000000    -0.758131   
O87      O      0.492780000000     0.971000000000     0.553600000000    -0.747543   
O88      O      0.779040000000     0.034430000000     0.721410000000    -0.752803   
O89      O      0.734370000000     0.191090000000     0.705310000000    -0.753064   
O90      O      0.449590000000     0.124520000000     0.539030000000    -0.776195   
O91      O      0.449640000000     0.042170000000     0.743080000000    -0.605847   
O92      O      0.590110000000     0.095300000000     0.826710000000    -0.602576   
O93      O      0.615950000000     0.147430000000     0.720960000000    -1.57413    
O94      O      0.536110000000     0.004320000000     0.663170000000    -1.50795    
O95      O      0.646030000000     0.023720000000     0.740740000000    -1.24196    
O96      O      0.489770000000     0.120340000000     0.661530000000    -1.20381    
O97      O      0.643630000000     0.408730000000     0.118430000000    -1.0792     
O98      O      0.541110000000     0.705380000000     0.158110000000    -0.795591   
O99      O      0.575870000000     0.535860000000     0.263840000000    -1.02085    
O100     O      0.490900000000     0.513230000000     0.112440000000    -1.06376    
O101     O      0.520930000000     0.526040000000     0.005380000000    -1.03712    
O102     O      0.685400000000     0.560710000000     0.294400000000    -0.809751   
O103     O      0.498410000000     0.612220000000     0.191020000000    -0.991551   
O104     O      0.549380000000     0.455470000000     0.161810000000    -1.0446     
O105     O      0.556950000000     0.610010000000     0.086750000000    -2.10719    
O106     O      0.663320000000     0.502920000000     0.185030000000    -2.09855    
O107     O      0.621460000000     0.624420000000     0.207960000000    -0.878774   
O108     O      0.655340000000     0.563390000000     0.100260000000    -2.57565    
O109     O      0.698100000000     0.748150000000     0.091490000000    -0.700153   
O110     O      0.795590000000     0.460050000000     0.044110000000    -0.942928   
O111     O      0.729150000000     0.666290000000     0.255770000000    -0.73112    
O112     O      0.543370000000     0.641360000000     0.979910000000    -0.980192   
O113     O      0.596180000000     0.491630000000     0.965130000000    -1.06784    
O114     O      0.766270000000     0.506090000000     0.249610000000    -0.75076    
O115     O      0.851440000000     0.632960000000     0.100260000000    -0.577276   
O116     O      0.767900000000     0.613570000000     0.948110000000    -0.616706   
O117     O      0.821320000000     0.617880000000     0.208610000000    -0.742584   
O118     O      0.657540000000     0.590940000000     0.919460000000    -0.955636   
O119     O      0.663650000000     0.731970000000     0.192320000000    -0.762552   
O120     O      0.758430000000     0.434560000000     0.167760000000    -0.9764     
O121     O      0.663110000000     0.425220000000     0.023250000000    -1.05136    
O122     O      0.565890000000     0.719420000000     0.051700000000    -0.783197   
O123     O      0.783470000000     0.699750000000     0.032880000000    -0.601357   
O124     O      0.837390000000     0.553200000000     0.011430000000    -0.641624   
O125     O      0.706720000000     0.532580000000     0.010870000000    -2.01929    
O126     O      0.730730000000     0.650140000000     0.133430000000    -1.60889    
O127     O      0.784180000000     0.545070000000     0.127230000000    -1.25723    
O128     O      0.672050000000     0.657650000000     0.022070000000    -1.25318    
Tb1      Tb     0.175290000000     0.117050000000     0.218000000000     5.2393     
Tb2      Tb     0.132770000000     0.003550000000     0.132380000000     4.31057    
Tb3      Tb     0.109340000000     0.201180000000     0.112930000000     4.83379    
Tb4      Tb     0.023670000000     0.105770000000     0.172270000000     3.94899    
Tb5      Tb     0.220170000000     0.099770000000     0.072790000000     4.31268    
Tb6      Tb     0.069940000000     0.090330000000     0.027960000000     3.06099    
Tb7      Tb     0.147730000000     0.554770000000     0.499560000000     6.03065    
Tb8      Tb     0.153080000000     0.646010000000     0.619590000000     4.86175    
Tb9      Tb     0.182920000000     0.449110000000     0.587580000000     6.34186    
Tb10     Tb     0.059800000000     0.528780000000     0.624130000000     4.82405    
Tb11     Tb     0.274610000000     0.566300000000     0.580780000000     6.13246    
Tb12     Tb     0.188080000000     0.537730000000     0.708660000000     3.3207     
Tb13     Tb     0.665950000000     0.089370000000     0.546990000000     5.28809    
Tb14     Tb     0.514900000000     0.061140000000     0.585980000000     4.08758    
Tb15     Tb     0.701050000000     0.098870000000     0.695300000000     4.22814    
Tb16     Tb     0.637100000000     0.984300000000     0.648600000000     4.42304    
Tb17     Tb     0.576870000000     0.175840000000     0.633820000000     4.68351    
Tb18     Tb     0.550670000000     0.072620000000     0.733390000000     3.13596    
Tb19     Tb     0.577600000000     0.549990000000     0.160240000000     6.31243    
Tb20     Tb     0.632350000000     0.672880000000     0.116770000000     4.36462    
Tb21     Tb     0.704590000000     0.484700000000     0.095700000000     6.34722    
Tb22     Tb     0.720740000000     0.582910000000     0.200700000000     4.37015    
Tb23     Tb     0.613950000000     0.574620000000     0.013300000000     6.33441    
Tb24     Tb     0.759250000000     0.607180000000     0.051150000000     3.11245    


