data_structure

_audit_creation_method RASPA-1.0
_audit_creation_date 2023-5-19
_audit_author_name 'Poobodin Mano'

_cell_length_a    21.5601
_cell_length_b    21.5782
_cell_length_c    21.0792
_cell_angle_alpha 90
_cell_angle_beta  90
_cell_angle_gamma 90
_cell_volume      9806.64

_symmetry_cell_setting          triclinic
_symmetry_space_group_name_Hall 'P 1'
_symmetry_space_group_name_H-M  'P 1'
_symmetry_Int_Tables_number     1

_symmetry_equiv_pos_as_xyz 'x,y,z'

loop_
_atom_site_label
_atom_site_type_symbol
_atom_site_fract_x
_atom_site_fract_y
_atom_site_fract_z
_atom_site_charge
C1       C      0.088480000000     0.199030000000     0.237760000000     0.720453   
C2       C      0.094440000000     0.910780000000     0.206750000000     0.66899    
C3       C      0.938890000000     0.043440000000     0.242910000000     0.68953    
C4       C      0.218900000000     0.093030000000     0.207280000000     0.730711   
C5       C      0.052340000000     0.947910000000     0.918120000000     0.572132   
C6       C      0.046230000000     0.233910000000     0.951950000000     0.646222   
C7       C      0.931810000000     0.921310000000     0.069130000000     0.603915   
C8       C      0.217600000000     0.938910000000     0.058040000000     0.702026   
C9       C      0.199480000000     0.218110000000     0.103280000000     0.707068   
C10      C      0.912320000000     0.199080000000     0.129880000000     0.696044   
C11      C      0.904460000000     0.071470000000     0.956000000000     0.588877   
C12      C      0.186400000000     0.106160000000     0.914580000000     0.6509     
C13      C      0.044260000000     0.403890000000     0.449560000000     0.72149    
C14      C      0.061790000000     0.691260000000     0.413520000000     0.668483   
C15      C      0.896310000000     0.570340000000     0.462400000000     0.684773   
C16      C      0.173480000000     0.509440000000     0.409610000000     0.733455   
C17      C      0.101720000000     0.714960000000     0.703440000000     0.569569   
C18      C      0.087290000000     0.430180000000     0.736780000000     0.646436   
C19      C      0.943710000000     0.719480000000     0.585020000000     0.59997    
C20      C      0.220830000000     0.684390000000     0.518550000000     0.701902   
C21      C      0.188150000000     0.402700000000     0.547240000000     0.716848   
C22      C      0.907380000000     0.438070000000     0.606920000000     0.694902   
C23      C      0.956800000000     0.598020000000     0.742680000000     0.584844   
C24      C      0.236230000000     0.548930000000     0.693680000000     0.663626   
C25      C      0.684390000000     0.082470000000     0.423540000000     0.748848   
C26      C      0.716010000000     0.010700000000     0.706440000000     0.68501    
C27      C      0.705100000000     0.193040000000     0.603730000000     0.686039   
C28      C      0.693280000000     0.922490000000     0.509330000000     0.733788   
C29      C      0.430550000000     0.025610000000     0.736400000000     0.580065   
C30      C      0.401910000000     0.076070000000     0.447620000000     0.664474   
C31      C      0.577630000000     0.150840000000     0.759330000000     0.608606   
C32      C      0.578300000000     0.877050000000     0.687370000000     0.685283   
C33      C      0.568070000000     0.955470000000     0.402920000000     0.720815   
C34      C      0.552710000000     0.232920000000     0.481170000000     0.691916   
C35      C      0.419590000000     0.188340000000     0.636150000000     0.573752   
C36      C      0.408200000000     0.917430000000     0.546110000000     0.651532   
C37      C      0.438470000000     0.416900000000     0.110320000000     0.747144   
C38      C      0.727320000000     0.437630000000     0.102060000000     0.689887   
C39      C      0.577100000000     0.399600000000     0.945150000000     0.692703   
C40      C      0.562710000000     0.443200000000     0.234430000000     0.745723   
C41      C      0.698510000000     0.715140000000     0.046790000000     0.583229   
C42      C      0.413120000000     0.694250000000     0.054630000000     0.671675   
C43      C      0.716490000000     0.560060000000     0.928610000000     0.597999   
C44      C      0.711450000000     0.590820000000     0.216250000000     0.710917   
C45      C      0.427080000000     0.552380000000     0.213390000000     0.73949    
C46      C      0.432720000000     0.513990000000     0.922300000000     0.706117   
C47      C      0.563500000000     0.681280000000     0.902310000000     0.570138   
C48      C      0.541120000000     0.726630000000     0.192320000000     0.660472   
C49      C      0.531360000000     0.297170000000     0.385090000000     0.0620413  
C50      C      0.589590000000     0.309760000000     0.345460000000    -0.137474   
C51      C      0.574000000000     0.338610000000     0.280760000000     0.065337   
C52      C      0.581840000000     0.859870000000     0.338220000000     0.0604859  
C53      C      0.516580000000     0.831950000000     0.332300000000    -0.127435   
C54      C      0.517540000000     0.769030000000     0.298540000000     0.0570484  
C55      C      0.591170000000     0.762610000000     0.692150000000     0.0576379  
C56      C      0.606290000000     0.712040000000     0.741680000000    -0.129207   
C57      C      0.551010000000     0.695330000000     0.785190000000     0.0461693  
C58      C      0.606420000000     0.245760000000     0.817200000000     0.0556577  
C59      C      0.548210000000     0.286480000000     0.813850000000    -0.125156   
C60      C      0.560570000000     0.351090000000     0.840640000000     0.0524231  
C61      C      0.743770000000     0.301220000000     0.598870000000     0.0519784  
C62      C      0.793220000000     0.325070000000     0.552360000000    -0.134713   
C63      C      0.855820000000     0.338030000000     0.584940000000     0.0603206  
C64      C      0.750730000000     0.823400000000     0.512380000000     0.0550866  
C65      C      0.816370000000     0.825750000000     0.540940000000    -0.132565   
C66      C      0.838480000000     0.765220000000     0.571930000000     0.0459097  
C67      C      0.311650000000     0.231890000000     0.634950000000     0.0368868  
C68      C      0.298850000000     0.289840000000     0.594680000000    -0.126799   
C69      C      0.231070000000     0.297860000000     0.572690000000     0.0513159  
C70      C      0.258960000000     0.784930000000     0.477840000000     0.0573363  
C71      C      0.317630000000     0.811270000000     0.446370000000    -0.13708    
C72      C      0.371110000000     0.821370000000     0.493550000000     0.0598188  
C73      C      0.742120000000     0.621890000000     0.324750000000     0.0685956  
C74      C      0.797020000000     0.658040000000     0.352040000000    -0.14508    
C75      C      0.852760000000     0.615900000000     0.366180000000     0.0686453  
C76      C      0.316870000000     0.548140000000     0.244480000000     0.0652389  
C77      C      0.277570000000     0.559350000000     0.304150000000    -0.136179   
C78      C      0.270520000000     0.501160000000     0.346350000000     0.0604574  
C79      C      0.291490000000     0.553300000000     0.796990000000     0.0508246  
C80      C      0.287540000000     0.489550000000     0.829460000000    -0.129713   
C81      C      0.324980000000     0.487810000000     0.891200000000     0.0603556  
C82      C      0.755850000000     0.560210000000     0.817340000000     0.0407543  
C83      C      0.819260000000     0.560200000000     0.783650000000    -0.11523    
C84      C      0.854780000000     0.621940000000     0.791840000000     0.0470237  
C85      C      0.804550000000     0.759080000000     0.059520000000     0.048406   
C86      C      0.846180000000     0.783380000000     0.005700000000    -0.128917   
C87      C      0.904480000000     0.816040000000     0.031090000000     0.0473888  
C88      C      0.875960000000     0.301110000000     0.168410000000     0.0646293  
C89      C      0.817490000000     0.328270000000     0.199250000000    -0.142128   
C90      C      0.765590000000     0.340690000000     0.150790000000     0.0650528  
C91      C      0.259930000000     0.835330000000     0.081470000000     0.05509    
C92      C      0.317650000000     0.817500000000     0.119780000000    -0.132122   
C93      C      0.371710000000     0.798370000000     0.076770000000     0.0495396  
C94      C      0.231240000000     0.320430000000     0.147760000000     0.0593029  
C95      C      0.292200000000     0.351330000000     0.169280000000    -0.140038   
C96      C      0.330900000000     0.375040000000     0.112740000000     0.0642973  
C97      C      0.853290000000     0.084940000000     0.851330000000     0.0397639  
C98      C      0.787230000000     0.081730000000     0.823930000000    -0.118823   
C99      C      0.765010000000     0.014530000000     0.812440000000     0.0437963  
C100     C      0.327130000000     0.043830000000     0.785470000000     0.0418678  
C101     C      0.323190000000     0.113030000000     0.804170000000    -0.12175    
C102     C      0.291200000000     0.123460000000     0.868620000000     0.0529996  
C103     C      0.254820000000     0.123620000000     0.314580000000     0.0602619  
C104     C      0.253340000000     0.063730000000     0.354790000000    -0.114157   
C105     C      0.290430000000     0.069830000000     0.416880000000     0.0400371  
C106     C      0.835030000000     0.046940000000     0.293030000000     0.054709   
C107     C      0.823070000000     0.112120000000     0.320400000000    -0.130415   
C108     C      0.788600000000     0.109550000000     0.383900000000     0.0638983  
C109     C      0.102580000000     0.404340000000     0.851230000000     0.046859   
C110     C      0.040730000000     0.397700000000     0.887610000000    -0.129303   
C111     C      0.042310000000     0.347520000000     0.939410000000     0.0570237  
C112     C      0.052580000000     0.842520000000     0.866690000000     0.0421088  
C113     C      0.118040000000     0.821540000000     0.846230000000    -0.120234   
C114     C      0.118380000000     0.758150000000     0.811800000000     0.0364805  
C115     C      0.101390000000     0.797060000000     0.231530000000     0.0471253  
C116     C      0.039510000000     0.767040000000     0.252760000000    -0.129753   
C117     C      0.047480000000     0.711380000000     0.298230000000     0.0551727  
C118     C      0.037430000000     0.290680000000     0.434980000000     0.0596766  
C119     C      0.033490000000     0.241010000000     0.382640000000    -0.133661   
C120     C      0.096970000000     0.224200000000     0.353210000000     0.0592411  
H1       H      0.029230000000     0.018690000000     0.126120000000    -1.2674     
H2       H      0.102950000000     0.106650000000     0.116720000000    -1.04371    
H3       H      0.994050000000     0.178040000000     0.044300000000    -0.476949   
H4       H      0.164160000000     0.029810000000     0.002980000000    -0.519046   
H5       H      0.020250000000     0.606060000000     0.533120000000    -1.2451     
H6       H      0.091980000000     0.516550000000     0.536580000000    -1.05988    
H7       H      0.011950000000     0.469820000000     0.654770000000    -0.50541    
H8       H      0.186340000000     0.609190000000     0.604560000000    -0.554935   
H9       H      0.608970000000     0.084160000000     0.631440000000    -1.26335    
H10      H      0.589790000000     0.026660000000     0.531480000000    -1.0671     
H11      H      0.492900000000     0.134490000000     0.498810000000    -0.530398   
H12      H      0.504660000000     0.936570000000     0.614500000000    -0.508213   
H13      H      0.619070000000     0.514920000000     0.032100000000    -1.26151    
H14      H      0.534770000000     0.529630000000     0.111690000000    -1.11021    
H15      H      0.461910000000     0.600380000000     0.000740000000    -0.564088   
H16      H      0.617090000000     0.639680000000     0.167230000000    -0.547164   
H17      H      0.506660000000     0.255950000000     0.365960000000     0.0214616  
H18      H      0.499800000000     0.337800000000     0.381920000000     0.00948011 
H19      H      0.554780000000     0.425400000000     0.330590000000     0.108298   
H20      H      0.621820000000     0.341010000000     0.371490000000     0.0568183  
H21      H      0.614200000000     0.265080000000     0.337820000000     0.0540157  
H22      H      0.533530000000     0.314910000000     0.258780000000     0.014262   
H23      H      0.614020000000     0.330980000000     0.248340000000     0.0170776  
H24      H      0.554400000000     0.328760000000     0.478880000000     0.10572    
H25      H      0.608840000000     0.850500000000     0.294300000000     0.013446   
H26      H      0.606410000000     0.838200000000     0.379000000000     0.0244168  
H27      H      0.524370000000     0.819540000000     0.209030000000     0.103792   
H28      H      0.496890000000     0.825920000000     0.380620000000     0.0528892  
H29      H      0.485340000000     0.863960000000     0.305990000000     0.0537625  
H30      H      0.471830000000     0.746090000000     0.305260000000     0.0130749  
H31      H      0.552970000000     0.738180000000     0.320420000000     0.02018    
H32      H      0.579790000000     0.954240000000     0.305440000000     0.110626   
H33      H      0.547260000000     0.751820000000     0.666760000000     0.0181147  
H34      H      0.628320000000     0.763160000000     0.655530000000     0.0166074  
H35      H      0.557160000000     0.766310000000     0.857160000000     0.104833   
H36      H      0.620060000000     0.669630000000     0.715230000000     0.0497517  
H37      H      0.647450000000     0.725990000000     0.770120000000     0.0611213  
H38      H      0.544330000000     0.644250000000     0.784560000000     0.0309843  
H39      H      0.507560000000     0.715950000000     0.766190000000     0.0197955  
H40      H      0.594760000000     0.828500000000     0.769920000000     0.111133   
H41      H      0.632540000000     0.253730000000     0.861870000000     0.0108668  
H42      H      0.637650000000     0.257840000000     0.777010000000     0.0206711  
H43      H      0.571180000000     0.305440000000     0.932540000000     0.106621   
H44      H      0.532950000000     0.290740000000     0.763660000000     0.0634844  
H45      H      0.509620000000     0.264840000000     0.841040000000     0.0571398  
H46      H      0.519700000000     0.381170000000     0.831170000000     0.0244506  
H47      H      0.600970000000     0.372820000000     0.816480000000     0.0190903  
H48      H      0.591320000000     0.154680000000     0.856520000000     0.104617   
H49      H      0.697060000000     0.311750000000     0.579230000000     0.0284033  
H50      H      0.747770000000     0.325340000000     0.645290000000     0.0162834  
H51      H      0.814540000000     0.421760000000     0.623000000000     0.107517   
H52      H      0.800020000000     0.290370000000     0.513930000000     0.0523009  
H53      H      0.776130000000     0.367950000000     0.528820000000     0.0539697  
H54      H      0.893580000000     0.331570000000     0.549550000000     0.0201417  
H55      H      0.864660000000     0.304740000000     0.624120000000     0.0143948  
H56      H      0.797220000000     0.217130000000     0.610470000000     0.106083   
H57      H      0.716380000000     0.810490000000     0.549530000000     0.0200761  
H58      H      0.749780000000     0.788090000000     0.474020000000     0.0115349  
H59      H      0.926250000000     0.813180000000     0.584830000000     0.104219   
H60      H      0.849370000000     0.837820000000     0.502230000000     0.052865   
H61      H      0.818320000000     0.863410000000     0.576940000000     0.0546857  
H62      H      0.828460000000     0.725220000000     0.540200000000     0.0222703  
H63      H      0.813340000000     0.757700000000     0.617300000000     0.0216688  
H64      H      0.773050000000     0.905430000000     0.459470000000     0.104592   
H65      H      0.299120000000     0.189550000000     0.607780000000     0.0319792  
H66      H      0.282710000000     0.234220000000     0.678500000000     0.0162916  
H67      H      0.264710000000     0.364350000000     0.504860000000     0.107872   
H68      H      0.312100000000     0.331600000000     0.622530000000     0.0536231  
H69      H      0.329410000000     0.287880000000     0.552170000000     0.0571133  
H70      H      0.199470000000     0.299800000000     0.614360000000     0.0226691  
H71      H      0.217990000000     0.257740000000     0.542480000000     0.0156239  
H72      H      0.394280000000     0.272310000000     0.675230000000     0.101344   
H73      H      0.219740000000     0.788140000000     0.443710000000     0.0209853  
H74      H      0.245330000000     0.812600000000     0.520040000000     0.0213406  
H75      H      0.316210000000     0.891910000000     0.540980000000     0.107292   
H76      H      0.333090000000     0.778990000000     0.408390000000     0.0501851  
H77      H      0.306180000000     0.856000000000     0.422900000000     0.0535063  
H78      H      0.415240000000     0.823660000000     0.466370000000     0.0188709  
H79      H      0.375140000000     0.781610000000     0.526750000000     0.0167153  
H80      H      0.310470000000     0.698660000000     0.488060000000     0.107775   
H81      H      0.700320000000     0.652130000000     0.325380000000     0.0187934  
H82      H      0.731530000000     0.580710000000     0.354510000000     0.0131683  
H83      H      0.802660000000     0.585730000000     0.450360000000     0.107093   
H84      H      0.811120000000     0.694320000000     0.317420000000     0.0544904  
H85      H      0.782430000000     0.682560000000     0.396000000000     0.0528448  
H86      H      0.895240000000     0.645290000000     0.366090000000     0.0121502  
H87      H      0.860080000000     0.580180000000     0.329080000000     0.013787   
H88      H      0.801840000000     0.600110000000     0.244320000000     0.109049   
H89      H      0.307280000000     0.585880000000     0.209840000000     0.0162622  
H90      H      0.303470000000     0.504180000000     0.220640000000     0.0155226  
H91      H      0.178570000000     0.475110000000     0.318250000000     0.106282   
H92      H      0.297820000000     0.597910000000     0.332400000000     0.0531544  
H93      H      0.231260000000     0.575920000000     0.288080000000     0.0520831  
H94      H      0.296100000000     0.508070000000     0.391600000000     0.0256849  
H95      H      0.290440000000     0.459770000000     0.322410000000     0.00927604 
H96      H      0.397560000000     0.547640000000     0.306610000000     0.108846   
H97      H      0.335980000000     0.576640000000     0.808800000000     0.01981    
H98      H      0.253170000000     0.583340000000     0.814400000000     0.0284069  
H99      H      0.408390000000     0.482950000000     0.833120000000     0.106667   
H100     H      0.238170000000     0.478760000000     0.839900000000     0.056749   
H101     H      0.305120000000     0.452480000000     0.797440000000     0.0560442  
H102     H      0.317110000000     0.442570000000     0.915070000000     0.0131737  
H103     H      0.308450000000     0.524710000000     0.923980000000     0.0222978  
H104     H      0.330900000000     0.537000000000     0.704600000000     0.107103   
H105     H      0.729690000000     0.517750000000     0.804030000000     0.0222747  
H106     H      0.727590000000     0.600560000000     0.801740000000     0.0233413  
H107     H      0.943550000000     0.612940000000     0.838930000000     0.101838   
H108     H      0.847190000000     0.520980000000     0.802620000000     0.0570162  
H109     H      0.812060000000     0.551270000000     0.732230000000     0.0590355  
H110     H      0.840520000000     0.645990000000     0.836130000000     0.0167233  
H111     H      0.843310000000     0.653040000000     0.751410000000     0.0297897  
H112     H      0.808630000000     0.566240000000     0.904860000000     0.107108   
H113     H      0.810910000000     0.787720000000     0.102860000000     0.0173878  
H114     H      0.818880000000     0.711110000000     0.071950000000     0.0321771  
H115     H      0.842250000000     0.888300000000     0.065280000000     0.107576   
H116     H      0.860380000000     0.743680000000     0.975380000000     0.0543294  
H117     H      0.820400000000     0.816330000000     0.974800000000     0.0596618  
H118     H      0.938070000000     0.822110000000     0.991500000000     0.0272769  
H119     H      0.927810000000     0.787040000000     0.067600000000     0.0186707  
H120     H      0.721040000000     0.807200000000     0.032310000000     0.104266   
H121     H      0.914950000000     0.303480000000     0.202890000000     0.0145824  
H122     H      0.890200000000     0.328700000000     0.126320000000     0.0164287  
H123     H      0.820100000000     0.418240000000     0.115770000000     0.107754   
H124     H      0.800310000000     0.295520000000     0.236030000000     0.0512491  
H125     H      0.829550000000     0.372040000000     0.224240000000     0.0547849  
H126     H      0.720440000000     0.340290000000     0.176360000000     0.0187926  
H127     H      0.763280000000     0.303440000000     0.114490000000     0.0140947  
H128     H      0.822000000000     0.216680000000     0.155750000000     0.107269   
H129     H      0.218590000000     0.830320000000     0.112670000000     0.0268863  
H130     H      0.253140000000     0.803650000000     0.040490000000     0.0176851  
H131     H      0.319870000000     0.714800000000     0.054300000000     0.108736   
H132     H      0.332010000000     0.857290000000     0.149980000000     0.0523361  
H133     H      0.306150000000     0.778810000000     0.152620000000     0.0518034  
H134     H      0.415730000000     0.805170000000     0.103460000000     0.0278861  
H135     H      0.374280000000     0.828080000000     0.033810000000     0.0216413  
H136     H      0.310120000000     0.916960000000     0.049500000000     0.109518   
H137     H      0.205770000000     0.350770000000     0.114000000000     0.0158889  
H138     H      0.200540000000     0.313560000000     0.189580000000     0.0174144  
H139     H      0.415680000000     0.328350000000     0.140060000000     0.105297   
H140     H      0.281150000000     0.391020000000     0.200910000000     0.051635   
H141     H      0.319140000000     0.317440000000     0.197960000000     0.0549575  
H142     H      0.315830000000     0.422950000000     0.100980000000     0.0284305  
H143     H      0.321700000000     0.346290000000     0.070020000000     0.011787   
H144     H      0.289940000000     0.246860000000     0.111330000000     0.111346   
H145     H      0.871600000000     0.132800000000     0.845580000000     0.0244426  
H146     H      0.885250000000     0.053730000000     0.824960000000     0.0265109  
H147     H      0.809660000000     0.997410000000     0.723050000000     0.10768    
H148     H      0.754580000000     0.105600000000     0.856690000000     0.0497096  
H149     H      0.786050000000     0.108720000000     0.778950000000     0.0478854  
H150     H      0.717570000000     0.008840000000     0.832300000000     0.0313542  
H151     H      0.795720000000     0.980860000000     0.837110000000     0.0212457  
H152     H      0.811130000000     0.058060000000     0.940790000000     0.107909   
H153     H      0.306950000000     0.037550000000     0.737350000000     0.0333117  
H154     H      0.299480000000     0.014850000000     0.818700000000     0.0227693  
H155     H      0.202730000000     0.120650000000     0.819210000000     0.105513   
H156     H      0.370450000000     0.133630000000     0.806500000000     0.0564703  
H157     H      0.298110000000     0.139240000000     0.766670000000     0.0546247  
H158     H      0.300990000000     0.171530000000     0.884690000000     0.0154386  
H159     H      0.310890000000     0.091820000000     0.905110000000     0.0257903  
H160     H      0.410420000000     0.011550000000     0.831540000000     0.107256   
H161     H      0.291920000000     0.155650000000     0.330850000000     0.00899038 
H162     H      0.210160000000     0.148580000000     0.320700000000     0.0212806  
H163     H      0.370530000000     0.085010000000     0.356320000000     0.109335   
H164     H      0.204400000000     0.052140000000     0.366420000000     0.0479614  
H165     H      0.272450000000     0.023980000000     0.327400000000     0.0534405  
H166     H      0.283790000000     0.027490000000     0.446190000000     0.0239727  
H167     H      0.273120000000     0.109730000000     0.445190000000     0.0204249  
H168     H      0.309390000000     0.118100000000     0.228610000000     0.106719   
H169     H      0.815780000000     0.044320000000     0.244170000000     0.0296623  
H170     H      0.811160000000     0.010750000000     0.321610000000     0.0132933  
H171     H      0.703340000000     0.100920000000     0.329610000000     0.10932    
H172     H      0.867530000000     0.137320000000     0.327790000000     0.0526717  
H173     H      0.796130000000     0.140260000000     0.285800000000     0.0523733  
H174     H      0.791610000000     0.155740000000     0.407100000000     0.00853104 
H175     H      0.810980000000     0.075810000000     0.416630000000     0.0218358  
H176     H      0.922040000000     0.024290000000     0.337680000000     0.104353   
H177     H      0.138250000000     0.372770000000     0.871430000000     0.0159693  
H178     H      0.120230000000     0.452490000000     0.856430000000     0.0260908  
H179     H      0.039530000000     0.277480000000     0.864400000000     0.104728   
H180     H      0.030240000000     0.442720000000     0.910950000000     0.0509762  
H181     H      0.001410000000     0.388270000000     0.854790000000     0.0602931  
H182     H      0.000580000000     0.352880000000     0.969960000000     0.0177783  
H183     H      0.083110000000     0.354600000000     0.970930000000     0.0187552  
H184     H      0.088340000000     0.341250000000     0.773630000000     0.106996   
H185     H      0.041570000000     0.823210000000     0.914290000000     0.0293098  
H186     H      0.018050000000     0.824290000000     0.832210000000     0.0200515  
H187     H      0.103990000000     0.808740000000     0.723440000000     0.106109   
H188     H      0.140210000000     0.857050000000     0.815400000000     0.0589341  
H189     H      0.147280000000     0.818040000000     0.889550000000     0.0553722  
H190     H      0.083910000000     0.726010000000     0.833290000000     0.0286798  
H191     H      0.164520000000     0.736100000000     0.818560000000     0.0261247  
H192     H      0.040980000000     0.931270000000     0.822180000000     0.104141   
H193     H      0.107740000000     0.790300000000     0.179630000000     0.0265307  
H194     H      0.140990000000     0.774060000000     0.255770000000     0.0143705  
H195     H      0.072060000000     0.777640000000     0.371980000000     0.104941   
H196     H      0.008320000000     0.801780000000     0.275230000000     0.0545062  
H197     H      0.014880000000     0.750340000000     0.209680000000     0.0488141  
H198     H      0.084320000000     0.679620000000     0.280740000000     0.0146787  
H199     H      0.003730000000     0.684040000000     0.298560000000     0.0147464  
H200     H      0.109040000000     0.873740000000     0.296140000000     0.103577   
H201     H      0.077570000000     0.281640000000     0.466870000000     0.0238835  
H202     H      0.995410000000     0.286790000000     0.465360000000     0.0153386  
H203     H      0.100470000000     0.287210000000     0.274520000000     0.107658   
H204     H      0.013860000000     0.198300000000     0.404330000000     0.0469818  
H205     H      0.999590000000     0.255780000000     0.345800000000     0.0559631  
H206     H      0.106110000000     0.173990000000     0.360450000000     0.022407   
H207     H      0.134900000000     0.250260000000     0.376990000000     0.00975874 
H208     H      0.035840000000     0.362040000000     0.361140000000     0.105529   
N1       N      0.561330000000     0.405400000000     0.285880000000    -0.289835   
N2       N      0.548430000000     0.288660000000     0.451680000000    -0.277085   
N3       N      0.528970000000     0.775920000000     0.230200000000    -0.270255   
N4       N      0.577280000000     0.926960000000     0.346380000000    -0.287851   
N5       N      0.560180000000     0.718450000000     0.850180000000    -0.249913   
N6       N      0.587180000000     0.824150000000     0.721120000000    -0.273517   
N7       N      0.571860000000     0.348190000000     0.909120000000    -0.279449   
N8       N      0.589000000000     0.180480000000     0.814580000000    -0.264629   
N9       N      0.856710000000     0.401210000000     0.610220000000    -0.27694    
N10      N      0.751970000000     0.234510000000     0.608300000000    -0.277309   
N11      N      0.905450000000     0.769340000000     0.584620000000    -0.258863   
N12      N      0.737040000000     0.884380000000     0.484880000000    -0.286511   
N13      N      0.227060000000     0.354780000000     0.534670000000    -0.282193   
N14      N      0.377470000000     0.232090000000     0.653490000000    -0.251707   
N15      N      0.361550000000     0.878330000000     0.530150000000    -0.268496   
N16      N      0.267630000000     0.720040000000     0.496120000000    -0.277714   
N17      N      0.845830000000     0.585180000000     0.427680000000    -0.280155   
N18      N      0.755830000000     0.601900000000     0.259900000000    -0.28203    
N19      N      0.204530000000     0.489750000000     0.357420000000    -0.287738   
N20      N      0.383230000000     0.547360000000     0.259180000000    -0.290249   
N21      N      0.391500000000     0.494530000000     0.878140000000    -0.278632   
N22      N      0.289090000000     0.545570000000     0.728170000000    -0.270917   
N23      N      0.921930000000     0.610970000000     0.794580000000    -0.254516   
N24      N      0.763800000000     0.561890000000     0.886310000000    -0.258509   
N25      N      0.888880000000     0.876710000000     0.058220000000    -0.259655   
N26      N      0.738910000000     0.763080000000     0.041680000000    -0.253719   
N27      N      0.775080000000     0.400410000000     0.119110000000    -0.278152   
N28      N      0.865930000000     0.236510000000     0.149870000000    -0.27842    
N29      N      0.364500000000     0.733590000000     0.057450000000    -0.272071   
N30      N      0.265860000000     0.899040000000     0.058350000000    -0.278686   
N31      N      0.397820000000     0.371220000000     0.125860000000    -0.290389   
N32      N      0.243760000000     0.260340000000     0.118010000000    -0.283511   
N33      N      0.766030000000     0.001530000000     0.744320000000    -0.274918   
N34      N      0.853270000000     0.069020000000     0.918810000000    -0.254639   
N35      N      0.223740000000     0.115960000000     0.863690000000    -0.266766   
N36      N      0.391870000000     0.022980000000     0.787230000000    -0.25256    
N37      N      0.356490000000     0.078250000000     0.403350000000    -0.269803   
N38      N      0.265300000000     0.109520000000     0.247310000000    -0.290128   
N39      N      0.723080000000     0.094300000000     0.374460000000    -0.290128   
N40      N      0.901670000000     0.034400000000     0.293860000000    -0.278616   
N41      N      0.042950000000     0.284300000000     0.913390000000    -0.26647    
N42      N      0.093520000000     0.388270000000     0.784440000000    -0.266666   
N43      N      0.107020000000     0.764400000000     0.743240000000    -0.249124   
N44      N      0.048160000000     0.910390000000     0.866350000000    -0.250651   
N45      N      0.061810000000     0.731010000000     0.363340000000    -0.272997   
N46      N      0.102570000000     0.863050000000     0.248190000000    -0.272561   
N47      N      0.097500000000     0.240090000000     0.285770000000    -0.284814   
N48      N      0.040490000000     0.354280000000     0.409880000000    -0.285018   
O1       O      0.080320000000     0.222960000000     0.180180000000    -1.02948    
O2       O      0.086530000000     0.898620000000     0.144600000000    -0.766311   
O3       O      0.000380000000     0.042330000000     0.252870000000    -1.03267    
O4       O      0.163570000000     0.080330000000     0.232230000000    -1.10422    
O5       O      0.231310000000     0.092250000000     0.145140000000    -1.04398    
O6       O      0.912670000000     0.052510000000     0.185930000000    -0.819364   
O7       O      0.093940000000     0.968270000000     0.231490000000    -1.01541    
O8       O      0.087450000000     0.138050000000     0.250320000000    -1.0267     
O9       O      0.143090000000     0.010390000000     0.131000000000    -2.08376    
O10      O      0.009240000000     0.125320000000     0.162820000000    -2.0975     
O11      O      0.010960000000     0.991290000000     0.149840000000    -0.874805   
O12      O      0.077550000000     0.084130000000     0.092330000000    -2.55415    
O13      O      0.062570000000     0.922240000000     0.975850000000    -0.69199    
O14      O      0.050270000000     0.243550000000     0.014820000000    -0.934277   
O15      O      0.910170000000     0.977910000000     0.084890000000    -0.768658   
O16      O      0.230890000000     0.999560000000     0.055300000000    -0.97731    
O17      O      0.219760000000     0.162830000000     0.084330000000    -1.0657     
O18      O      0.898370000000     0.139300000000     0.121200000000    -0.810708   
O19      O      0.960140000000     0.083430000000     0.928970000000    -0.592915   
O20      O      0.125310000000     0.102160000000     0.903700000000    -0.640744   
O21      O      0.895200000000     0.062610000000     0.018450000000    -0.759238   
O22      O      0.212280000000     0.099810000000     0.972460000000    -0.928741   
O23      O      0.992340000000     0.906730000000     0.061770000000    -0.736048   
O24      O      0.969430000000     0.223130000000     0.121300000000    -0.919499   
O25      O      0.139450000000     0.233100000000     0.109840000000    -0.989744   
O26      O      0.159960000000     0.916100000000     0.063200000000    -0.774229   
O27      O      0.047340000000     0.009400000000     0.907290000000    -0.593111   
O28      O      0.044840000000     0.177330000000     0.925300000000    -0.627773   
O29      O      0.117660000000     0.149580000000     0.020160000000    -1.97686    
O30      O      0.004870000000     0.018340000000     0.021680000000    -1.62633    
O31      O      0.983550000000     0.138560000000     0.028790000000    -1.28207    
O32      O      0.123250000000     0.017180000000     0.994830000000    -1.25302    
O33      O      0.051560000000     0.392610000000     0.511270000000    -1.06335    
O34      O      0.073920000000     0.715190000000     0.471050000000    -0.775886   
O35      O      0.951150000000     0.564200000000     0.432300000000    -1.02296    
O36      O      0.112460000000     0.516750000000     0.403550000000    -1.09146    
O37      O      0.205060000000     0.520670000000     0.463080000000    -1.03753    
O38      O      0.889550000000     0.569620000000     0.525380000000    -0.818564   
O39      O      0.049920000000     0.630670000000     0.403030000000    -0.987403   
O40      O      0.039590000000     0.460900000000     0.424650000000    -1.03312    
O41      O      0.125450000000     0.605460000000     0.489640000000    -2.10923    
O42      O      0.988720000000     0.496170000000     0.528530000000    -2.08004    
O43      O      0.995770000000     0.629550000000     0.510870000000    -0.883295   
O44      O      0.076060000000     0.545410000000     0.562360000000    -2.56088    
O45      O      0.093780000000     0.727290000000     0.641030000000    -0.706976   
O46      O      0.071590000000     0.407840000000     0.679550000000    -0.933016   
O47      O      0.918550000000     0.662740000000     0.593470000000    -0.75149    
O48      O      0.232940000000     0.624030000000     0.527260000000    -0.98306    
O49      O      0.210080000000     0.459240000000     0.535300000000    -1.09052    
O50      O      0.897720000000     0.499190000000     0.609550000000    -0.802478   
O51      O      0.018020000000     0.587860000000     0.751630000000    -0.586955   
O52      O      0.182480000000     0.560250000000     0.723690000000    -0.63247    
O53      O      0.927820000000     0.595140000000     0.686140000000    -0.747267   
O54      O      0.241480000000     0.541960000000     0.630550000000    -0.969163   
O55      O      0.004440000000     0.730550000000     0.574160000000    -0.741813   
O56      O      0.963660000000     0.411990000000     0.598850000000    -0.926881   
O57      O      0.131230000000     0.391220000000     0.570040000000    -0.997266   
O58      O      0.165260000000     0.710450000000     0.529540000000    -0.766826   
O59      O      0.104340000000     0.657390000000     0.728520000000    -0.583543   
O60      O      0.095690000000     0.490780000000     0.748980000000    -0.620104   
O61      O      0.136690000000     0.493290000000     0.630370000000    -1.98748    
O62      O      0.029850000000     0.629260000000     0.637320000000    -1.61525    
O63      O      0.007390000000     0.512090000000     0.664200000000    -1.25765    
O64      O      0.151000000000     0.626870000000     0.623160000000    -1.23219    
O65      O      0.623800000000     0.085140000000     0.411750000000    -1.06852    
O66      O      0.658990000000     0.009100000000     0.732280000000    -0.786057   
O67      O      0.721110000000     0.133840000000     0.593260000000    -1.03901    
O68      O      0.709960000000     0.981070000000     0.519420000000    -1.11718    
O69      O      0.637000000000     0.899670000000     0.522130000000    -1.02308    
O70      O      0.646240000000     0.212860000000     0.609430000000    -0.779664   
O71      O      0.727180000000     0.023290000000     0.645140000000    -1.03519    
O72      O      0.708670000000     0.071460000000     0.480820000000    -1.06096    
O73      O      0.628430000000     0.972490000000     0.615170000000    -2.08921    
O74      O      0.618870000000     0.129230000000     0.525320000000    -2.13577    
O75      O      0.635730000000     0.100030000000     0.657640000000    -0.883673   
O76      O      0.568680000000     0.043280000000     0.563860000000    -2.5699     
O77      O      0.491600000000     0.016940000000     0.747610000000    -0.720873   
O78      O      0.459910000000     0.083970000000     0.426420000000    -0.985958   
O79      O      0.573320000000     0.185220000000     0.705890000000    -0.75646    
O80      O      0.567800000000     0.873730000000     0.624280000000    -0.918639   
O81      O      0.565360000000     0.920950000000     0.455680000000    -1.04641    
O82      O      0.560950000000     0.233710000000     0.544060000000    -0.79042    
O83      O      0.398770000000     0.132990000000     0.615180000000    -0.588165   
O84      O      0.392040000000     0.972650000000     0.569930000000    -0.639241   
O85      O      0.480120000000     0.204410000000     0.639710000000    -0.721943   
O86      O      0.467340000000     0.899540000000     0.536100000000    -0.929577   
O87      O      0.575080000000     0.088580000000     0.761660000000    -0.761144   
O88      O      0.546340000000     0.180460000000     0.446900000000    -0.937449   
O89      O      0.562300000000     0.017010000000     0.401550000000    -1.06505    
O90      O      0.580840000000     0.930310000000     0.719700000000    -0.79604    
O91      O      0.405870000000     0.037760000000     0.678850000000    -0.59422    
O92      O      0.387490000000     0.065120000000     0.508710000000    -0.621922   
O93      O      0.492120000000     0.006180000000     0.504420000000    -1.97972    
O94      O      0.507410000000     0.092580000000     0.657300000000    -1.6143     
O95      O      0.486070000000     0.135690000000     0.542780000000    -1.26497    
O96      O      0.495280000000     0.972550000000     0.637730000000    -1.24695    
O97      O      0.415630000000     0.472010000000     0.094210000000    -1.11136    
O98      O      0.740630000000     0.496990000000     0.089690000000    -0.806457   
O99      O      0.581180000000     0.391430000000     0.008200000000    -1.04812    
O100     O      0.569490000000     0.417160000000     0.177460000000    -1.08704    
O101     O      0.559110000000     0.504340000000     0.244180000000    -1.05821    
O102     O      0.575120000000     0.455030000000     0.916390000000    -0.784442   
O103     O      0.669550000000     0.413840000000     0.101140000000    -1.02309    
O104     O      0.499060000000     0.403360000000     0.111080000000    -1.0764     
O105     O      0.632780000000     0.513840000000     0.148480000000    -2.14217    
O106     O      0.510720000000     0.483250000000     0.018320000000    -2.13319    
O107     O      0.644700000000     0.489960000000     0.013170000000    -0.873323   
O108     O      0.557330000000     0.551960000000     0.084300000000    -2.60982    
O109     O      0.721610000000     0.657920000000     0.057140000000    -0.730297   
O110     O      0.400560000000     0.633440000000     0.057270000000    -0.991538   
O111     O      0.657910000000     0.550360000000     0.907530000000    -0.724214   
O112     O      0.651500000000     0.592590000000     0.234010000000    -0.970842   
O113     O      0.485260000000     0.562020000000     0.232400000000    -1.09158    
O114     O      0.492200000000     0.519070000000     0.904550000000    -0.762485   
O115     O      0.558610000000     0.708910000000     0.959690000000    -0.575825   
O116     O      0.546280000000     0.736760000000     0.129670000000    -0.614743   
O117     O      0.569030000000     0.619500000000     0.893500000000    -0.708463   
O118     O      0.546850000000     0.670520000000     0.219490000000    -0.962982   
O119     O      0.732450000000     0.567820000000     0.989780000000    -0.77294    
O120     O      0.412150000000     0.526100000000     0.981240000000    -0.984512   
O121     O      0.409380000000     0.548870000000     0.152600000000    -1.0809     
O122     O      0.730500000000     0.581160000000     0.156790000000    -0.801967   
O123     O      0.637530000000     0.728820000000     0.043680000000    -0.586983   
O124     O      0.470550000000     0.717920000000     0.051740000000    -0.628904   
O125     O      0.496760000000     0.625580000000     0.125430000000    -2.04572    
O126     O      0.622550000000     0.616680000000     0.003620000000    -1.59851    
O127     O      0.501480000000     0.613770000000     0.988140000000    -1.23717    
O128     O      0.629310000000     0.645810000000     0.124950000000    -1.25168    
Tb1      Tb     0.076460000000     0.058260000000     0.185420000000     6.36912    
Tb2      Tb     0.073280000000     0.968120000000     0.069670000000     4.24301    
Tb3      Tb     0.056190000000     0.176010000000     0.092530000000     6.03099    
Tb4      Tb     0.961790000000     0.064700000000     0.096620000000     4.56839    
Tb5      Tb     0.168020000000     0.078810000000     0.064870000000     6.3069     
Tb6      Tb     0.052790000000     0.087520000000     0.974230000000     3.19826    
Tb7      Tb     0.045340000000     0.552500000000     0.471240000000     6.32322    
Tb8      Tb     0.079860000000     0.663540000000     0.559930000000     4.28927    
Tb9      Tb     0.055330000000     0.457310000000     0.589980000000     6.11138    
Tb10     Tb     0.965390000000     0.572070000000     0.592390000000     4.49057    
Tb11     Tb     0.170070000000     0.549420000000     0.556480000000     6.42778    
Tb12     Tb     0.090520000000     0.567620000000     0.680600000000     3.12404    
Tb13     Tb     0.662060000000     0.053960000000     0.571530000000     6.45417    
Tb14     Tb     0.571300000000     0.023810000000     0.682250000000     4.39452    
Tb15     Tb     0.547170000000     0.082300000000     0.478710000000     6.37201    
Tb16     Tb     0.563710000000     0.154050000000     0.607300000000     4.36601    
Tb17     Tb     0.554550000000     0.950230000000     0.554780000000     6.14413    
Tb18     Tb     0.453360000000     0.050930000000     0.587500000000     3.17061    
Tb19     Tb     0.579800000000     0.460350000000     0.084710000000     6.44897    
Tb20     Tb     0.673000000000     0.569600000000     0.073230000000     4.44995    
Tb21     Tb     0.464800000000     0.555110000000     0.065630000000     6.5968     
Tb22     Tb     0.571440000000     0.544070000000     0.964060000000     4.23622    
Tb23     Tb     0.567530000000     0.580430000000     0.175570000000     6.44255    
Tb24     Tb     0.557530000000     0.666630000000     0.055280000000     3.08481    


