data_structure

_audit_creation_method RASPA-1.0
_audit_creation_date 2023-5-19
_audit_author_name 'Poobodin Mano'

_cell_length_a    20.0492
_cell_length_b    20.0278
_cell_length_c    20.0569
_cell_angle_alpha 90
_cell_angle_beta  90
_cell_angle_gamma 90
_cell_volume      8053.68

_symmetry_cell_setting          triclinic
_symmetry_space_group_name_Hall 'P 1'
_symmetry_space_group_name_H-M  'P 1'
_symmetry_Int_Tables_number     1

_symmetry_equiv_pos_as_xyz 'x,y,z'

loop_
_atom_site_label
_atom_site_type_symbol
_atom_site_fract_x
_atom_site_fract_y
_atom_site_fract_z
_atom_site_charge
C1       C      0.032750000000     0.173130000000     0.152210000000     0.727487   
C2       C      0.009270000000     0.860530000000     0.176120000000     0.671997   
C3       C      0.853600000000     0.033590000000     0.167710000000     0.678088   
C4       C      0.162680000000     0.038700000000     0.162700000000     0.719195   
C5       C      0.993640000000     0.847630000000     0.870200000000     0.558167   
C6       C      0.004170000000     0.151460000000     0.845950000000     0.649769   
C7       C      0.857140000000     0.852530000000     0.027370000000     0.585907   
C8       C      0.166060000000     0.856150000000     0.034970000000     0.701677   
C9       C      0.161000000000     0.161450000000     0.025550000000     0.708947   
C10      C      0.852490000000     0.163040000000     0.021460000000     0.694997   
C11      C      0.853970000000     0.991210000000     0.862580000000     0.563523   
C12      C      0.161690000000     0.998560000000     0.854420000000     0.646117   
C13      C      0.031200000000     0.364860000000     0.352450000000     0.712154   
C14      C      0.034150000000     0.676130000000     0.366920000000     0.685516   
C15      C      0.860060000000     0.521190000000     0.348730000000     0.666194   
C16      C      0.171380000000     0.501060000000     0.365090000000     0.731261   
C17      C      0.002200000000     0.658800000000     0.669520000000     0.571348   
C18      C      0.010540000000     0.351340000000     0.662170000000     0.650796   
C19      C      0.856650000000     0.663750000000     0.523920000000     0.592658   
C20      C      0.164710000000     0.666390000000     0.526620000000     0.692851   
C21      C      0.160410000000     0.357980000000     0.483780000000     0.714345   
C22      C      0.853760000000     0.359190000000     0.476270000000     0.689373   
C23      C      0.849930000000     0.520520000000     0.654750000000     0.570751   
C24      C      0.156170000000     0.485570000000     0.673470000000     0.657621   
C25      C      0.662940000000     0.020800000000     0.360070000000     0.750842   
C26      C      0.351920000000     0.013550000000     0.359110000000     0.664842   
C27      C      0.504210000000     0.849900000000     0.366250000000     0.669891   
C28      C      0.526820000000     0.161780000000     0.354810000000     0.721801   
C29      C      0.357360000000     0.018600000000     0.665570000000     0.568602   
C30      C      0.665690000000     0.028070000000     0.671130000000     0.634906   
C31      C      0.361530000000     0.857570000000     0.520880000000     0.59634    
C32      C      0.351820000000     0.166970000000     0.504980000000     0.682182   
C33      C      0.661550000000     0.167000000000     0.488030000000     0.725214   
C34      C      0.668160000000     0.859060000000     0.508480000000     0.678689   
C35      C      0.499960000000     0.867820000000     0.673160000000     0.561058   
C36      C      0.528750000000     0.176600000000     0.661490000000     0.664536   
C37      C      0.351830000000     0.358600000000     0.017950000000     0.736562   
C38      C      0.661730000000     0.349820000000     0.993830000000     0.670511   
C39      C      0.493600000000     0.360160000000     0.849890000000     0.681337   
C40      C      0.493720000000     0.352230000000     0.161410000000     0.724062   
C41      C      0.663540000000     0.660610000000     0.001620000000     0.553067   
C42      C      0.358230000000     0.664810000000     0.045840000000     0.64852    
C43      C      0.654290000000     0.512580000000     0.848340000000     0.589028   
C44      C      0.674870000000     0.485070000000     0.155720000000     0.687351   
C45      C      0.365130000000     0.481960000000     0.169200000000     0.708394   
C46      C      0.348120000000     0.514770000000     0.860320000000     0.685156   
C47      C      0.512160000000     0.667690000000     0.862770000000     0.558641   
C48      C      0.519900000000     0.661110000000     0.170480000000     0.640012   
C49      C      0.541540000000     0.280000000000     0.318280000000     0.00967928 
C50      C      0.527920000000     0.189290000000     0.233540000000    -0.00715813 
C51      C      0.488720000000     0.321780000000     0.281530000000     0.0138956  
C52      C      0.473230000000     0.230960000000     0.198960000000     0.0731354  
C53      C      0.463350000000     0.208210000000     0.126720000000    -0.145776   
C54      C      0.544800000000     0.691470000000     0.288370000000     0.010124   
C55      C      0.517820000000     0.779900000000     0.203330000000    -0.0205335  
C56      C      0.501500000000     0.728950000000     0.339680000000     0.00330169 
C57      C      0.467210000000     0.809280000000     0.251770000000     0.0769144  
C58      C      0.445960000000     0.879910000000     0.230960000000    -0.137391   
C59      C      0.537360000000     0.786070000000     0.832440000000    -0.00455341 
C60      C      0.508530000000     0.702410000000     0.743530000000    -0.0251876  
C61      C      0.497140000000     0.839720000000     0.794000000000    -0.000828027
C62      C      0.459610000000     0.753510000000     0.713330000000     0.0835625  
C63      C      0.433900000000     0.735530000000     0.642000000000    -0.235881   
C64      C      0.493500000000     0.240910000000     0.816750000000     0.0168247  
C65      C      0.482900000000     0.331050000000     0.730160000000    -0.0158234  
C66      C      0.551070000000     0.210520000000     0.777470000000    -0.000333458
C67      C      0.541500000000     0.299780000000     0.692100000000     0.0786283  
C68      C      0.540820000000     0.321710000000     0.618580000000    -0.139564   
C69      C      0.691720000000     0.286710000000     0.488300000000     0.0170635  
C70      C      0.780600000000     0.196600000000     0.482510000000    -0.00569505 
C71      C      0.736870000000     0.332100000000     0.446510000000     0.00160262 
C72      C      0.820850000000     0.242410000000     0.436820000000     0.0740531  
C73      C      0.894080000000     0.220110000000     0.434230000000    -0.140364   
C74      C      0.702290000000     0.742390000000     0.484940000000     0.00436152 
C75      C      0.787920000000     0.828640000000     0.518640000000    -0.0125507  
C76      C      0.736520000000     0.691820000000     0.530900000000     0.00400759 
C77      C      0.817940000000     0.777450000000     0.567750000000     0.0807338  
C78      C      0.889850000000     0.795670000000     0.591920000000    -0.236018   
C79      C      0.231880000000     0.198000000000     0.513920000000     0.00276692 
C80      C      0.320550000000     0.286610000000     0.507930000000    -0.0102786  
C81      C      0.188910000000     0.238740000000     0.465160000000     0.0141138  
C82      C      0.279580000000     0.322460000000     0.454120000000     0.0834703  
C83      C      0.302290000000     0.396060000000     0.443610000000    -0.21258    
C84      C      0.195440000000     0.784450000000     0.547050000000     0.0100201  
C85      C      0.280480000000     0.694680000000     0.558090000000    -0.00492923 
C86      C      0.244180000000     0.826370000000     0.506480000000     0.000829566
C87      C      0.330010000000     0.734340000000     0.515430000000     0.0746405  
C88      C      0.401600000000     0.710600000000     0.533450000000    -0.172073   
C89      C      0.741790000000     0.524700000000     0.312220000000     0.00369686 
C90      C      0.833880000000     0.526360000000     0.227470000000    -0.0114534  
C91      C      0.707750000000     0.468610000000     0.273440000000     0.0171185  
C92      C      0.797890000000     0.470470000000     0.188730000000     0.0764314  
C93      C      0.819910000000     0.470020000000     0.115480000000    -0.161944   
C94      C      0.249570000000     0.453560000000     0.205150000000     0.00833023 
C95      C      0.339560000000     0.465490000000     0.289260000000    -0.00889031 
C96      C      0.204170000000     0.498920000000     0.246460000000     0.0116323  
C97      C      0.294700000000     0.511200000000     0.332430000000     0.0761565  
C98      C      0.317650000000     0.504500000000     0.405720000000    -0.158285   
C99      C      0.185670000000     0.471280000000     0.793670000000    -0.00215921 
C100     C      0.273860000000     0.468800000000     0.705730000000    -0.0070262  
C101     C      0.227460000000     0.522270000000     0.833450000000     0.0132694  
C102     C      0.309320000000     0.526880000000     0.739800000000     0.0791209  
C103     C      0.381250000000     0.533510000000     0.714050000000    -0.154475   
C104     C      0.815020000000     0.549810000000     0.769700000000    -0.00148045 
C105     C      0.730380000000     0.542820000000     0.679630000000    -0.0182336  
C106     C      0.772110000000     0.505980000000     0.814260000000     0.00442912 
C107     C      0.684230000000     0.500700000000     0.724770000000     0.0730724  
C108     C      0.611290000000     0.512620000000     0.703200000000    -0.153593   
C109     C      0.781200000000     0.694710000000     0.979400000000    -0.000110423
C110     C      0.693840000000     0.780850000000     0.005200000000    -0.0281636  
C111     C      0.829930000000     0.731670000000     0.025990000000     0.00285672 
C112     C      0.740440000000     0.811440000000     0.057420000000     0.075495   
C113     C      0.718610000000     0.882190000000     0.077880000000    -0.155359   
C114     C      0.735480000000     0.196940000000     0.045050000000    -0.000103824
C115     C      0.822570000000     0.282620000000     0.015880000000    -0.0080929  
C116     C      0.687850000000     0.228990000000     0.994260000000     0.0198162  
C117     C      0.776920000000     0.308230000000     0.960670000000     0.0774441  
C118     C      0.797100000000     0.377630000000     0.935450000000    -0.159847   
C119     C      0.243040000000     0.693940000000     0.080670000000     0.0151982  
C120     C      0.331460000000     0.779680000000     0.082550000000    -0.0194389  
C121     C      0.197900000000     0.738460000000     0.038850000000     0.000933603
C122     C      0.289030000000     0.828300000000     0.041150000000     0.0751922  
C123     C      0.306930000000     0.899960000000     0.064330000000    -0.128068   
C124     C      0.193850000000     0.275680000000     0.062460000000     0.00519914 
C125     C      0.280300000000     0.192560000000     0.026260000000    -0.00809162 
C126     C      0.231700000000     0.330950000000     0.024570000000     0.0107862  
C127     C      0.309120000000     0.245290000000     0.979510000000     0.0800601  
C128     C      0.378130000000     0.225740000000     0.952840000000    -0.141719   
C129     C      0.785510000000     0.035040000000     0.703960000000     0.0109318  
C130     C      0.695980000000     0.032290000000     0.791200000000    -0.0234189  
C131     C      0.823900000000     0.981010000000     0.742740000000    -0.00294634 
C132     C      0.732570000000     0.974660000000     0.825920000000     0.0785727  
C133     C      0.709170000000     0.966620000000     0.898310000000    -0.157131   
C134     C      0.322540000000     0.033550000000     0.783480000000    -0.00901858 
C135     C      0.236830000000     0.022840000000     0.692730000000    -0.0222378  
C136     C      0.281260000000     0.986020000000     0.826730000000     0.0195677  
C137     C      0.198480000000     0.972220000000     0.735240000000     0.0799854  
C138     C      0.125670000000     0.966770000000     0.711270000000    -0.165911   
C139     C      0.281480000000     0.058460000000     0.195270000000     0.00891636 
C140     C      0.192240000000     0.058180000000     0.281430000000    -0.00549723 
C141     C      0.323100000000     0.010600000000     0.238740000000     0.00740958 
C142     C      0.230060000000     0.005240000000     0.321850000000     0.0722284  
C143     C      0.205410000000     0.005770000000     0.394590000000    -0.161131   
C144     C      0.823180000000     0.064780000000     0.284000000000     0.0089543  
C145     C      0.735490000000     0.053930000000     0.196710000000    -0.0155699  
C146     C      0.782460000000     0.019630000000     0.330460000000     0.011132   
C147     C      0.698310000000     0.002860000000     0.239290000000     0.0759592  
C148     C      0.625450000000     0.997330000000     0.215660000000    -0.13204    
C149     C      0.997340000000     0.180180000000     0.725510000000     0.0034104  
C150     C      0.965310000000     0.262830000000     0.812740000000    -0.000909483
C151     C      0.038180000000     0.234470000000     0.689970000000     0.00924494 
C152     C      0.012400000000     0.314650000000     0.783480000000     0.071003   
C153     C      0.990130000000     0.384340000000     0.808060000000    -0.154914   
C154     C      0.974830000000     0.727680000000     0.840890000000     0.00419991 
C155     C      0.960760000000     0.816340000000     0.755480000000    -0.023949   
C156     C      0.013190000000     0.684930000000     0.789470000000    -0.00756673 
C157     C      0.007780000000     0.780250000000     0.707550000000     0.0764418  
C158     C      0.996570000000     0.807770000000     0.636040000000    -0.165554   
C159     C      0.996660000000     0.832560000000     0.296470000000     0.0161544  
C160     C      0.013060000000     0.742280000000     0.210070000000    -0.0154032  
C161     C      0.047370000000     0.796600000000     0.341560000000     0.000767856
C162     C      0.069790000000     0.714460000000     0.251920000000     0.0786828  
C163     C      0.089190000000     0.643250000000     0.230800000000    -0.134845   
C164     C      0.041220000000     0.247290000000     0.316030000000     0.0116548  
C165     C      0.008370000000     0.337850000000     0.235470000000    -0.00679651 
C166     C      0.077830000000     0.211740000000     0.259800000000     0.00652037 
C167     C      0.039640000000     0.297710000000     0.177570000000     0.0729484  
C168     C      0.998780000000     0.314110000000     0.114040000000    -0.128601   
H1       H      0.961710000000     0.963940000000     0.066700000000    -1.24156    
H2       H      0.048100000000     0.050380000000     0.049370000000    -1.09922    
H3       H      0.945120000000     0.116300000000     0.948550000000    -0.549244   
H4       H      0.119680000000     0.943750000000     0.957180000000    -0.550024   
H5       H      0.964920000000     0.562520000000     0.460830000000    -1.26685    
H6       H      0.050650000000     0.472890000000     0.471460000000    -1.0598     
H7       H      0.943430000000     0.396270000000     0.562160000000    -0.492761   
H8       H      0.119510000000     0.565150000000     0.580450000000    -0.560889   
H9       H      0.463380000000     0.964510000000     0.466530000000    -1.24647    
H10      H      0.549990000000     0.052280000000     0.472630000000    -1.07496    
H11      H      0.623650000000     0.956090000000     0.575910000000    -0.530865   
H12      H      0.451030000000     0.129090000000     0.570840000000    -0.536315   
H13      H      0.553110000000     0.460340000000     0.959150000000    -1.23821    
H14      H      0.471110000000     0.468940000000     0.051350000000    -1.07356    
H15      H      0.395130000000     0.575140000000     0.959820000000    -0.50942    
H16      H      0.579150000000     0.562530000000     0.121470000000    -0.547635   
H17      H      0.509660000000     0.214360000000     0.096920000000     0.0534671  
H18      H      0.576580000000     0.199990000000     0.209100000000     0.0258144  
H19      H      0.591500000000     0.295360000000     0.299680000000     0.0226508  
H20      H      0.499620000000     0.375380000000     0.290460000000     0.033668   
H21      H      0.516930000000     0.135360000000     0.226730000000     0.0330837  
H22      H      0.449580000000     0.154470000000     0.125560000000     0.0378537  
H23      H      0.425800000000     0.218310000000     0.225060000000     0.0090549  
H24      H      0.539640000000     0.292000000000     0.372320000000     0.0332525  
H25      H      0.439380000000     0.311270000000     0.304660000000     0.0199946  
H26      H      0.421030000000     0.236050000000     0.104660000000     0.065588   
H27      H      0.489330000000     0.913820000000     0.225440000000     0.0485627  
H28      H      0.566450000000     0.805880000000     0.209940000000     0.0340223  
H29      H      0.597550000000     0.706670000000     0.296290000000     0.0257901  
H30      H      0.524580000000     0.722660000000     0.389660000000     0.0334359  
H31      H      0.500690000000     0.788720000000     0.151350000000     0.042498   
H32      H      0.420440000000     0.877860000000     0.181880000000     0.0377772  
H33      H      0.421190000000     0.778390000000     0.246710000000     0.011317   
H34      H      0.541650000000     0.637010000000     0.298440000000     0.0295446  
H35      H      0.451620000000     0.704690000000     0.341220000000     0.0242043  
H36      H      0.409350000000     0.899750000000     0.267270000000     0.0607816  
H37      H      0.485270000000     0.731130000000     0.620970000000     0.0817908  
H38      H      0.557610000000     0.707380000000     0.718140000000     0.0364353  
H39      H      0.590810000000     0.792090000000     0.818900000000     0.031886   
H40      H      0.522830000000     0.888490000000     0.800380000000     0.0372931  
H41      H      0.490300000000     0.651050000000     0.734460000000     0.0373187  
H42      H      0.408430000000     0.688130000000     0.656760000000     0.0581995  
H43      H      0.414450000000     0.750470000000     0.746040000000     0.0131216  
H44      H      0.533250000000     0.796250000000     0.886740000000     0.0386146  
H45      H      0.447200000000     0.844150000000     0.817740000000     0.0314151  
H46      H      0.400990000000     0.780240000000     0.637820000000     0.0925143  
H47      H      0.492520000000     0.309730000000     0.594170000000     0.0549951  
H48      H      0.435520000000     0.310320000000     0.709990000000     0.033201   
H49      H      0.446570000000     0.215620000000     0.801360000000     0.024385   
H50      H      0.554000000000     0.156180000000     0.788110000000     0.0375728  
H51      H      0.482160000000     0.385870000000     0.721940000000     0.036174   
H52      H      0.547590000000     0.376710000000     0.615600000000     0.0369124  
H53      H      0.587710000000     0.321750000000     0.713870000000     0.00975328 
H54      H      0.501680000000     0.230380000000     0.870460000000     0.027742   
H55      H      0.598360000000     0.233200000000     0.795680000000     0.0276008  
H56      H      0.583110000000     0.298800000000     0.591270000000     0.0635729  
H57      H      0.916460000000     0.217400000000     0.484840000000     0.0530929  
H58      H      0.799480000000     0.201520000000     0.534450000000     0.0308658  
H59      H      0.697400000000     0.301080000000     0.541540000000     0.022032   
H60      H      0.726390000000     0.384830000000     0.460100000000     0.0356401  
H61      H      0.788500000000     0.144020000000     0.466430000000     0.0384555  
H62      H      0.897520000000     0.169520000000     0.411680000000     0.0383854  
H63      H      0.801010000000     0.234350000000     0.385510000000     0.00984923 
H64      H      0.639130000000     0.296680000000     0.473830000000     0.0316502  
H65      H      0.723000000000     0.325830000000     0.393150000000     0.0252349  
H66      H      0.922650000000     0.254430000000     0.401870000000     0.0659739  
H67      H      0.913140000000     0.800160000000     0.541620000000     0.0821952  
H68      H      0.816110000000     0.826420000000     0.470940000000     0.0297379  
H69      H      0.721790000000     0.734780000000     0.433590000000     0.0255757  
H70      H      0.728440000000     0.641150000000     0.509920000000     0.0374802  
H71      H      0.793620000000     0.879730000000     0.539550000000     0.0376947  
H72      H      0.877110000000     0.844530000000     0.615570000000     0.0599077  
H73      H      0.785460000000     0.781190000000     0.613030000000     0.0118291  
H74      H      0.647950000000     0.731600000000     0.483640000000     0.0342595  
H75      H      0.711290000000     0.693360000000     0.580280000000     0.0279034  
H76      H      0.890310000000     0.750290000000     0.624390000000     0.0904758  
H77      H      0.297690000000     0.414500000000     0.495850000000     0.0742703  
H78      H      0.307460000000     0.307800000000     0.557520000000     0.0298267  
H79      H      0.215680000000     0.210370000000     0.565480000000     0.0268955  
H80      H      0.135580000000     0.229270000000     0.476730000000     0.0326966  
H81      H      0.374570000000     0.295710000000     0.499490000000     0.0331851  
H82      H      0.354960000000     0.385570000000     0.428740000000     0.0503206  
H83      H      0.292120000000     0.295320000000     0.406850000000     0.00614909 
H84      H      0.221870000000     0.144080000000     0.505880000000     0.0325492  
H85      H      0.198220000000     0.219610000000     0.413910000000     0.0203669  
H86      H      0.262940000000     0.399040000000     0.404340000000     0.0780656  
H87      H      0.417940000000     0.723490000000     0.587610000000     0.10651    
H88      H      0.288890000000     0.707190000000     0.611480000000     0.0290958  
H89      H      0.199900000000     0.799090000000     0.600380000000     0.0266765  
H90      H      0.233110000000     0.879560000000     0.517560000000     0.0335144  
H91      H      0.289980000000     0.640310000000     0.552140000000     0.0329129  
H92      H      0.403810000000     0.655220000000     0.529290000000     0.0429084  
H93      H      0.321340000000     0.718780000000     0.462830000000     0.0118943  
H94      H      0.143910000000     0.796300000000     0.530450000000     0.0324623  
H95      H      0.233600000000     0.818180000000     0.452650000000     0.0255507  
H96      H      0.438490000000     0.727610000000     0.495870000000     0.0758469  
H97      H      0.808940000000     0.518370000000     0.090610000000     0.0647785  
H98      H      0.818600000000     0.575370000000     0.206270000000     0.0295676  
H99      H      0.720510000000     0.573080000000     0.295200000000     0.0272385  
H100     H      0.653410000000     0.469980000000     0.283970000000     0.0296435  
H101     H      0.888680000000     0.521340000000     0.220650000000     0.0330406  
H102     H      0.874600000000     0.461530000000     0.112380000000     0.0434293  
H103     H      0.816230000000     0.422570000000     0.210270000000     0.0113221  
H104     H      0.729690000000     0.519120000000     0.365970000000     0.0362927  
H105     H      0.726710000000     0.420130000000     0.292840000000     0.0238977  
H106     H      0.795640000000     0.427910000000     0.089230000000     0.0722886  
H107     H      0.308620000000     0.450410000000     0.424680000000     0.0985689  
H108     H      0.333780000000     0.412900000000     0.306000000000     0.0241602  
H109     H      0.239470000000     0.400910000000     0.219660000000     0.019558   
H110     H      0.151860000000     0.483070000000     0.237190000000     0.0306707  
H111     H      0.392680000000     0.479380000000     0.297000000000     0.0387134  
H112     H      0.372210000000     0.514240000000     0.408900000000     0.0391751  
H113     H      0.305770000000     0.563440000000     0.317050000000     0.0099017  
H114     H      0.236430000000     0.458980000000     0.151630000000     0.0346828  
H115     H      0.209900000000     0.550540000000     0.226960000000     0.0207367  
H116     H      0.294990000000     0.543330000000     0.438040000000     0.0617962  
H117     H      0.409920000000     0.486630000000     0.721180000000     0.0696     
H118     H      0.294040000000     0.421130000000     0.725930000000     0.0319868  
H119     H      0.197470000000     0.420550000000     0.812890000000     0.0282503  
H120     H      0.220030000000     0.512520000000     0.887460000000     0.0303527  
H121     H      0.283950000000     0.469190000000     0.651240000000     0.0346088  
H122     H      0.380660000000     0.544420000000     0.659710000000     0.0394642  
H123     H      0.283540000000     0.573280000000     0.723040000000     0.0142931  
H124     H      0.132020000000     0.480910000000     0.803200000000     0.0324932  
H125     H      0.207320000000     0.572920000000     0.822880000000     0.026806   
H126     H      0.406130000000     0.576350000000     0.738440000000     0.0663901  
H127     H      0.593820000000     0.562890000000     0.718860000000     0.0698882  
H128     H      0.716680000000     0.596410000000     0.685080000000     0.0359281  
H129     H      0.802380000000     0.602940000000     0.779820000000     0.0316604  
H130     H      0.783430000000     0.519630000000     0.866740000000     0.0347046  
H131     H      0.722010000000     0.528740000000     0.626670000000     0.0433967  
H132     H      0.606690000000     0.509680000000     0.648060000000     0.0424656  
H133     H      0.695510000000     0.447500000000     0.713220000000     0.0119393  
H134     H      0.868290000000     0.542400000000     0.783060000000     0.0368069  
H135     H      0.788270000000     0.453530000000     0.806180000000     0.0242393  
H136     H      0.578210000000     0.472710000000     0.722700000000     0.0663768  
H137     H      0.714930000000     0.916160000000     0.034530000000     0.0615895  
H138     H      0.701160000000     0.807320000000     0.957010000000     0.0381702  
H139     H      0.790660000000     0.712090000000     0.927600000000     0.03115    
H140     H      0.881020000000     0.725630000000     0.005360000000     0.0386626  
H141     H      0.641240000000     0.788650000000     0.020800000000     0.046536   
H142     H      0.668380000000     0.879920000000     0.101180000000     0.0459357  
H143     H      0.733940000000     0.780710000000     0.103320000000     0.0151176  
H144     H      0.792370000000     0.640390000000     0.980970000000     0.0352367  
H145     H      0.828910000000     0.706550000000     0.075440000000     0.0271284  
H146     H      0.753120000000     0.902860000000     0.115950000000     0.0630042  
H147     H      0.803180000000     0.414040000000     0.976500000000     0.0649102  
H148     H      0.813290000000     0.311810000000     0.062100000000     0.0284337  
H149     H      0.724380000000     0.218640000000     0.094860000000     0.026543   
H150     H      0.635960000000     0.222930000000     0.012730000000     0.0235848  
H151     H      0.875480000000     0.290210000000     0.001170000000     0.0331569  
H152     H      0.845670000000     0.374430000000     0.908910000000     0.0452536  
H153     H      0.785030000000     0.274420000000     0.917210000000     0.0127683  
H154     H      0.725130000000     0.142530000000     0.047980000000     0.0346639  
H155     H      0.692030000000     0.200990000000     0.946540000000     0.0217082  
H156     H      0.759320000000     0.395320000000     0.899310000000     0.066529   
H157     H      0.278530000000     0.913590000000     0.109890000000     0.0584727  
H158     H      0.321740000000     0.788870000000     0.136460000000     0.031224   
H159     H      0.232040000000     0.703390000000     0.134230000000     0.0231664  
H160     H      0.145710000000     0.728700000000     0.054850000000     0.0347815  
H161     H      0.385310000000     0.789570000000     0.073650000000     0.0408551  
H162     H      0.360910000000     0.904560000000     0.076060000000     0.0347846  
H163     H      0.305790000000     0.823360000000     0.988480000000     0.0182138  
H164     H      0.230960000000     0.640850000000     0.070100000000     0.0304898  
H165     H      0.202080000000     0.722750000000     0.985820000000     0.0311222  
H166     H      0.298530000000     0.936840000000     0.023870000000     0.052609   
H167     H      0.415070000000     0.218320000000     0.993080000000     0.0535411  
H168     H      0.306970000000     0.194610000000     0.074850000000     0.0272814  
H169     H      0.209270000000     0.277840000000     0.115680000000     0.0199031  
H170     H      0.227670000000     0.377870000000     0.053890000000     0.0318162  
H171     H      0.288010000000     0.142100000000     0.004430000000     0.0372008  
H172     H      0.374520000000     0.177970000000     0.924860000000     0.0400431  
H173     H      0.276490000000     0.244990000000     0.934450000000     0.0104266  
H174     H      0.139840000000     0.286760000000     0.060530000000     0.0363231  
H175     H      0.206140000000     0.339430000000     0.976090000000     0.0244004  
H176     H      0.395210000000     0.264070000000     0.916950000000     0.0673257  
H177     H      0.715930000000     0.013400000000     0.927310000000     0.0630283  
H178     H      0.712710000000     0.080190000000     0.813820000000     0.0366236  
H179     H      0.805160000000     0.084590000000     0.719470000000     0.0285914  
H180     H      0.878040000000     0.987930000000     0.733470000000     0.0389829  
H181     H      0.641430000000     0.027850000000     0.799960000000     0.0435674  
H182     H      0.655150000000     0.954220000000     0.899200000000     0.0475261  
H183     H      0.716290000000     0.928180000000     0.800020000000     0.016083   
H184     H      0.795830000000     0.029120000000     0.649870000000     0.0300829  
H185     H      0.810080000000     0.931540000000     0.721580000000     0.028774   
H186     H      0.735760000000     0.924120000000     0.921730000000     0.0727714  
H187     H      0.099250000000     0.015350000000     0.715620000000     0.0711898  
H188     H      0.215820000000     0.073440000000     0.701920000000     0.0354072  
H189     H      0.308870000000     0.085680000000     0.796840000000     0.0309256  
H190     H      0.290050000000     0.999140000000     0.879800000000     0.0313902  
H191     H      0.229220000000     0.011130000000     0.639110000000     0.0444389  
H192     H      0.124660000000     0.952090000000     0.657830000000     0.048923   
H193     H      0.221450000000     0.922620000000     0.724920000000     0.0158476  
H194     H      0.376160000000     0.026520000000     0.795600000000     0.0374957  
H195     H      0.300620000000     0.934510000000     0.819160000000     0.02694    
H196     H      0.098940000000     0.926760000000     0.738760000000     0.0766864  
H197     H      0.217210000000     0.053940000000     0.419350000000     0.0722521  
H198     H      0.207520000000     0.108520000000     0.299340000000     0.0270405  
H199     H      0.297280000000     0.110420000000     0.206820000000     0.0225347  
H200     H      0.376580000000     0.022650000000     0.230690000000     0.0266737  
H201     H      0.137820000000     0.053130000000     0.290440000000     0.0359924  
H202     H      0.150360000000     0.999410000000     0.395930000000     0.0449076  
H203     H      0.214940000000     0.955900000000     0.301090000000     0.0114519  
H204     H      0.292800000000     0.049010000000     0.141860000000     0.0316565  
H205     H      0.314610000000     0.959120000000     0.219930000000     0.0192301  
H206     H      0.226310000000     0.962820000000     0.422610000000     0.0677815  
H207     H      0.598100000000     0.044860000000     0.223500000000     0.0580793  
H208     H      0.716250000000     0.104680000000     0.208690000000     0.0307991  
H209     H      0.809780000000     0.117530000000     0.295070000000     0.0227149  
H210     H      0.790740000000     0.037170000000     0.382350000000     0.0332215  
H211     H      0.725740000000     0.044740000000     0.142940000000     0.0404278  
H212     H      0.623890000000     0.986150000000     0.161420000000     0.0343662  
H213     H      0.721330000000     0.953410000000     0.228450000000     0.00849028 
H214     H      0.877100000000     0.058460000000     0.295110000000     0.0268728  
H215     H      0.802880000000     0.968120000000     0.326890000000     0.022853   
H216     H      0.600270000000     0.954800000000     0.240610000000     0.0524373  
H217     H      0.940980000000     0.398610000000     0.786710000000     0.069572   
H218     H      0.915380000000     0.268940000000     0.789180000000     0.0304101  
H219     H      0.946700000000     0.178750000000     0.702920000000     0.0288518  
H220     H      0.034970000000     0.225610000000     0.635400000000     0.0294939  
H221     H      0.958450000000     0.271020000000     0.867140000000     0.0369408  
H222     H      0.984860000000     0.384410000000     0.863230000000     0.0431856  
H223     H      0.062550000000     0.305380000000     0.805520000000     0.0151373  
H224     H      0.021420000000     0.130870000000     0.717140000000     0.029551   
H225     H      0.091360000000     0.227860000000     0.704310000000     0.024697   
H226     H      0.028680000000     0.422460000000     0.797250000000     0.0742853  
H227     H      0.943040000000     0.799940000000     0.614780000000     0.105236   
H228     H      0.908900000000     0.799060000000     0.745710000000     0.0353311  
H229     H      0.921520000000     0.712320000000     0.839810000000     0.0285935  
H230     H      0.998970000000     0.631970000000     0.797830000000     0.0396724  
H231     H      0.961520000000     0.870970000000     0.745860000000     0.045813   
H232     H      0.004560000000     0.862770000000     0.637070000000     0.0438873  
H233     H      0.059340000000     0.795550000000     0.721540000000     0.0161203  
H234     H      0.994440000000     0.716910000000     0.891600000000     0.0352591  
H235     H      0.067320000000     0.689090000000     0.800820000000     0.0327917  
H236     H      0.035820000000     0.790090000000     0.601280000000     0.0727456  
H237     H      0.044920000000     0.610240000000     0.225900000000     0.0472552  
H238     H      0.965990000000     0.716170000000     0.223710000000     0.0316855  
H239     H      0.945800000000     0.816720000000     0.311880000000     0.0193954  
H240     H      0.033010000000     0.804560000000     0.394450000000     0.0337796  
H241     H      0.023030000000     0.731920000000     0.156560000000     0.0439773  
H242     H      0.113840000000     0.644770000000     0.181190000000     0.0387848  
H243     H      0.114510000000     0.745630000000     0.240670000000     0.0130309  
H244     H      0.000470000000     0.887250000000     0.304980000000     0.0233925  
H245     H      0.096940000000     0.820420000000     0.334100000000     0.0261227  
H246     H      0.125630000000     0.622310000000     0.266740000000     0.0608592  
H247     H      0.950290000000     0.287230000000     0.114320000000     0.0588349  
H248     H      0.953450000000     0.329390000000     0.235820000000     0.0271294  
H249     H      0.991060000000     0.224310000000     0.319910000000     0.0236256  
H250     H      0.080410000000     0.157770000000     0.271900000000     0.0335971  
H251     H      0.016180000000     0.391890000000     0.225230000000     0.0340185  
H252     H      0.987880000000     0.368470000000     0.111140000000     0.0333492  
H253     H      0.090890000000     0.317720000000     0.170360000000     0.00828427 
H254     H      0.068410000000     0.238520000000     0.363560000000     0.0306946  
H255     H      0.129930000000     0.230780000000     0.258220000000     0.0197192  
H256     H      0.026970000000     0.302840000000     0.067930000000     0.0576127  
N1       N      0.486120000000     0.303510000000     0.209920000000    -0.238799   
N2       N      0.532240000000     0.208180000000     0.304530000000    -0.230262   
N3       N      0.493050000000     0.799820000000     0.320630000000    -0.228418   
N4       N      0.525980000000     0.708530000000     0.219200000000    -0.210727   
N5       N      0.488160000000     0.821580000000     0.723000000000    -0.207016   
N6       N      0.516940000000     0.717140000000     0.815230000000    -0.192817   
N7       N      0.542070000000     0.226680000000     0.706290000000    -0.223902   
N8       N      0.488410000000     0.312820000000     0.801160000000    -0.222809   
N9       N      0.807280000000     0.312970000000     0.455600000000    -0.22778    
N10      N      0.709430000000     0.215270000000     0.481410000000    -0.231373   
N11      N      0.807670000000     0.709490000000     0.539270000000    -0.21407    
N12      N      0.717260000000     0.811560000000     0.505540000000    -0.217724   
N13      N      0.207440000000     0.310190000000     0.468080000000    -0.240348   
N14      N      0.303280000000     0.215060000000     0.507060000000    -0.218259   
N15      N      0.314480000000     0.807590000000     0.519880000000    -0.214407   
N16      N      0.212060000000     0.713410000000     0.540240000000    -0.221783   
N17      N      0.724760000000     0.474540000000     0.201950000000    -0.22924    
N18      N      0.814070000000     0.524150000000     0.298300000000    -0.218547   
N19      N      0.222220000000     0.498530000000     0.318240000000    -0.240409   
N20      N      0.319870000000     0.469090000000     0.218890000000    -0.228539   
N21      N      0.298520000000     0.520400000000     0.813170000000    -0.228415   
N22      N      0.202580000000     0.473870000000     0.722110000000    -0.21435    
N23      N      0.700370000000     0.511680000000     0.797040000000    -0.211662   
N24      N      0.800400000000     0.534440000000     0.699690000000    -0.197168   
N25      N      0.810410000000     0.802550000000     0.034610000000    -0.212638   
N26      N      0.711170000000     0.709610000000     0.996500000000    -0.191179   
N27      N      0.706850000000     0.299420000000     0.982870000000    -0.23055    
N28      N      0.805580000000     0.212020000000     0.028060000000    -0.221623   
N29      N      0.216210000000     0.810070000000     0.043680000000    -0.228673   
N30      N      0.312760000000     0.710950000000     0.066920000000    -0.213373   
N31      N      0.301790000000     0.311950000000     0.011460000000    -0.241826   
N32      N      0.209370000000     0.208430000000     0.036660000000    -0.228121   
N33      N      0.805550000000     0.982480000000     0.814340000000    -0.205066   
N34      N      0.713660000000     0.032160000000     0.719750000000    -0.209197   
N35      N      0.210120000000     0.988050000000     0.806910000000    -0.221779   
N36      N      0.307810000000     0.022740000000     0.712320000000    -0.195782   
N37      N      0.303300000000     0.013000000000     0.310120000000    -0.226749   
N38      N      0.210030000000     0.051550000000     0.210520000000    -0.230452   
N39      N      0.710990000000     0.018170000000     0.311170000000    -0.243524   
N40      N      0.806540000000     0.050260000000     0.214070000000    -0.220488   
N41      N      0.016950000000     0.302630000000     0.709900000000    -0.222509   
N42      N      0.991240000000     0.196350000000     0.796640000000    -0.213612   
N43      N      0.002530000000     0.706520000000     0.719240000000    -0.20647    
N44      N      0.979090000000     0.798980000000     0.824290000000    -0.194367   
N45      N      0.051680000000     0.725370000000     0.322750000000    -0.230538   
N46      N      0.006440000000     0.814020000000     0.225790000000    -0.222472   
N47      N      0.045420000000     0.225350000000     0.195210000000    -0.237681   
N48      N      0.033960000000     0.318990000000     0.301690000000    -0.229291   
O1       O      0.026000000000     0.186690000000     0.087720000000    -1.07855    
O2       O      0.013400000000     0.837930000000     0.113460000000    -0.815024   
O3       O      0.918010000000     0.030640000000     0.186640000000    -1.01246    
O4       O      0.099410000000     0.032760000000     0.182630000000    -1.08634    
O5       O      0.181650000000     0.032110000000     0.098960000000    -1.03104    
O6       O      0.833200000000     0.023470000000     0.104850000000    -0.809069   
O7       O      0.006090000000     0.926010000000     0.191910000000    -1.00933    
O8       O      0.029310000000     0.110740000000     0.176590000000    -1.04676    
O9       O      0.081490000000     0.949350000000     0.088050000000    -2.08659    
O10      O      0.945390000000     0.084540000000     0.080070000000    -2.12183    
O11      O      0.937370000000     0.941170000000     0.094400000000    -0.882602   
O12      O      0.022170000000     0.022880000000     0.025590000000    -2.57777    
O13      O      0.998600000000     0.830990000000     0.935520000000    -0.700893   
O14      O      0.006160000000     0.174330000000     0.908990000000    -0.972985   
O15      O      0.836720000000     0.916910000000     0.023810000000    -0.748557   
O16      O      0.182970000000     0.919850000000     0.025580000000    -0.994105   
O17      O      0.180330000000     0.097910000000     0.020480000000    -1.07834    
O18      O      0.832940000000     0.098900000000     0.023080000000    -0.771476   
O19      O      0.918020000000     0.994850000000     0.842130000000    -0.562992   
O20      O      0.097400000000     0.999070000000     0.836490000000    -0.618309   
O21      O      0.835730000000     0.996410000000     0.927260000000    -0.725381   
O22      O      0.181030000000     0.004120000000     0.918470000000    -0.938136   
O23      O      0.921860000000     0.833970000000     0.025830000000    -0.746803   
O24      O      0.916480000000     0.181690000000     0.013920000000    -0.969117   
O25      O      0.097290000000     0.181010000000     0.020650000000    -1.04949    
O26      O      0.102010000000     0.835650000000     0.034590000000    -0.768632   
O27      O      0.000060000000     0.910390000000     0.847060000000    -0.58114    
O28      O      0.008050000000     0.086640000000     0.830250000000    -0.623943   
O29      O      0.079130000000     0.076160000000     0.942970000000    -2.0002     
O30      O      0.946960000000     0.943600000000     0.956670000000    -1.59734    
O31      O      0.933240000000     0.072340000000     0.937730000000    -1.2346     
O32      O      0.076850000000     0.930120000000     0.944540000000    -1.21513    
O33      O      0.028430000000     0.342550000000     0.415270000000    -1.0183     
O34      O      0.026330000000     0.692800000000     0.431140000000    -0.808337   
O35      O      0.925500000000     0.523410000000     0.333140000000    -1.00618    
O36      O      0.108110000000     0.503360000000     0.343480000000    -1.06918    
O37      O      0.186610000000     0.502500000000     0.429840000000    -1.07832    
O38      O      0.837530000000     0.516840000000     0.411570000000    -0.811604   
O39      O      0.027690000000     0.613210000000     0.344590000000    -1.02309    
O40      O      0.027100000000     0.429620000000     0.336250000000    -1.0657     
O41      O      0.086450000000     0.578010000000     0.446990000000    -2.12351    
O42      O      0.948750000000     0.444110000000     0.432810000000    -2.08412    
O43      O      0.942120000000     0.589190000000     0.435410000000    -0.863197   
O44      O      0.024080000000     0.497730000000     0.497370000000    -2.59132    
O45      O      0.002600000000     0.679300000000     0.605830000000    -0.732558   
O46      O      0.013000000000     0.334200000000     0.597060000000    -0.917327   
O47      O      0.836990000000     0.600330000000     0.512940000000    -0.760283   
O48      O      0.183250000000     0.601730000000     0.525690000000    -0.97208    
O49      O      0.179990000000     0.420900000000     0.493920000000    -1.09176    
O50      O      0.834990000000     0.423390000000     0.481850000000    -0.784025   
O51      O      0.912710000000     0.513380000000     0.678080000000    -0.599542   
O52      O      0.091690000000     0.491430000000     0.690660000000    -0.630147   
O53      O      0.833460000000     0.517250000000     0.589520000000    -0.728488   
O54      O      0.177740000000     0.490750000000     0.610120000000    -0.972031   
O55      O      0.921170000000     0.683490000000     0.522420000000    -0.736848   
O56      O      0.916530000000     0.339220000000     0.487830000000    -0.961656   
O57      O      0.096570000000     0.338950000000     0.487900000000    -1.03295    
O58      O      0.101280000000     0.686320000000     0.519850000000    -0.780523   
O59      O      0.004610000000     0.593470000000     0.687020000000    -0.584343   
O60      O      0.003840000000     0.414260000000     0.682230000000    -0.666298   
O61      O      0.076360000000     0.436020000000     0.574430000000    -2.01782    
O62      O      0.946860000000     0.569600000000     0.571790000000    -1.64231    
O63      O      0.931160000000     0.439350000000     0.576320000000    -1.2675     
O64      O      0.076160000000     0.579500000000     0.590510000000    -1.25398    
O65      O      0.682700000000     0.022960000000     0.423750000000    -1.06346    
O66      O      0.333770000000     0.016300000000     0.423360000000    -0.788723   
O67      O      0.504280000000     0.913760000000     0.345390000000    -1.0121     
O68      O      0.523030000000     0.097100000000     0.338400000000    -1.07358    
O69      O      0.524010000000     0.183460000000     0.417830000000    -1.06574    
O70      O      0.511230000000     0.832970000000     0.430690000000    -0.791454   
O71      O      0.416460000000     0.010750000000     0.340310000000    -0.999296   
O72      O      0.599010000000     0.018100000000     0.342420000000    -1.10574    
O73      O      0.445230000000     0.083610000000     0.439680000000    -2.10988    
O74      O      0.582700000000     0.947300000000     0.444330000000    -2.08323    
O75      O      0.438390000000     0.938920000000     0.442030000000    -0.876774   
O76      O      0.524520000000     0.027520000000     0.499760000000    -2.58134    
O77      O      0.338790000000     0.012560000000     0.601280000000    -0.730748   
O78      O      0.684750000000     0.025750000000     0.606590000000    -0.916561   
O79      O      0.425940000000     0.839930000000     0.521800000000    -0.771149   
O80      O      0.416120000000     0.186580000000     0.505440000000    -0.962329   
O81      O      0.597800000000     0.186170000000     0.490810000000    -1.07721    
O82      O      0.603940000000     0.839540000000     0.507660000000    -0.775981   
O83      O      0.506010000000     0.932700000000     0.690820000000    -0.587082   
O84      O      0.524330000000     0.113570000000     0.684210000000    -0.627334   
O85      O      0.504010000000     0.846530000000     0.609330000000    -0.717094   
O86      O      0.522180000000     0.192030000000     0.596920000000    -0.972325   
O87      O      0.340540000000     0.921980000000     0.517820000000    -0.728829   
O88      O      0.686550000000     0.923400000000     0.512560000000    -0.961893   
O89      O      0.681340000000     0.103460000000     0.494130000000    -1.07154    
O90      O      0.333410000000     0.102590000000     0.505520000000    -0.771704   
O91      O      0.421530000000     0.023720000000     0.685890000000    -0.587932   
O92      O      0.601660000000     0.025080000000     0.690230000000    -0.63218    
O93      O      0.581580000000     0.087640000000     0.574060000000    -2.01251    
O94      O      0.450610000000     0.955480000000     0.578020000000    -1.599      
O95      O      0.580730000000     0.943450000000     0.589460000000    -1.24903    
O96      O      0.437830000000     0.086160000000     0.584180000000    -1.24891    
O97      O      0.334380000000     0.422860000000     0.023250000000    -1.03837    
O98      O      0.683320000000     0.413200000000     0.997670000000    -0.777148   
O99      O      0.501130000000     0.339270000000     0.913080000000    -1.02347    
O100     O      0.494290000000     0.335380000000     0.096760000000    -1.07794    
O101     O      0.501150000000     0.415320000000     0.181730000000    -1.07422    
O102     O      0.491900000000     0.424870000000     0.832350000000    -0.805447   
O103     O      0.596920000000     0.333010000000     0.998410000000    -1.0175     
O104     O      0.415360000000     0.338700000000     0.015370000000    -1.07999    
O105     O      0.576450000000     0.433070000000     0.076380000000    -2.08894    
O106     O      0.432830000000     0.442050000000     0.947490000000    -2.10201    
O107     O      0.575570000000     0.435050000000     0.932030000000    -0.873638   
O108     O      0.495970000000     0.495270000000     0.025120000000    -2.56666    
O109     O      0.682490000000     0.595610000000     0.998110000000    -0.684676   
O110     O      0.337920000000     0.601320000000     0.039410000000    -0.957522   
O111     O      0.588810000000     0.513950000000     0.833300000000    -0.765942   
O112     O      0.611700000000     0.489560000000     0.178120000000    -0.962655   
O113     O      0.429430000000     0.489380000000     0.186010000000    -1.05817    
O114     O      0.411210000000     0.509760000000     0.839860000000    -0.811779   
O115     O      0.511780000000     0.685430000000     0.927950000000    -0.577455   
O116     O      0.515230000000     0.682030000000     0.107210000000    -0.634651   
O117     O      0.508020000000     0.603720000000     0.841640000000    -0.733561   
O118     O      0.521220000000     0.596000000000     0.187690000000    -0.937388   
O119     O      0.677450000000     0.509980000000     0.911740000000    -0.729864   
O120     O      0.331590000000     0.516700000000     0.925580000000    -0.920688   
O121     O      0.342750000000     0.486640000000     0.106570000000    -1.05634    
O122     O      0.690070000000     0.490310000000     0.090790000000    -0.766838   
O123     O      0.600020000000     0.680550000000     0.010680000000    -0.591344   
O124     O      0.421560000000     0.684350000000     0.035450000000    -0.625277   
O125     O      0.444360000000     0.570760000000     0.088300000000    -1.99208    
O126     O      0.568550000000     0.571820000000     0.949030000000    -1.60946    
O127     O      0.437740000000     0.586640000000     0.944180000000    -1.26231    
O128     O      0.588850000000     0.577170000000     0.078110000000    -1.22939    
Tb1      Tb     0.008450000000     0.014820000000     0.125950000000     6.35824    
Tb2      Tb     0.011070000000     0.896890000000     0.024050000000     4.36082    
Tb3      Tb     0.006880000000     0.120850000000     0.004290000000     6.42223    
Tb4      Tb     0.896380000000     0.009870000000     0.018570000000     4.40379    
Tb5      Tb     0.121250000000     0.007560000000     0.010480000000     6.3174     
Tb6      Tb     0.009870000000     0.004230000000     0.901060000000     3.00752    
Tb7      Tb     0.014320000000     0.518590000000     0.398470000000     6.32274    
Tb8      Tb     0.013060000000     0.623210000000     0.512860000000     4.35677    
Tb9      Tb     0.006820000000     0.398080000000     0.506850000000     6.13989    
Tb10     Tb     0.898100000000     0.511040000000     0.500960000000     4.46219    
Tb11     Tb     0.122440000000     0.510550000000     0.517770000000     6.50223    
Tb12     Tb     0.006770000000     0.503350000000     0.622810000000     3.21916    
Tb13     Tb     0.508420000000     0.008570000000     0.401300000000     6.35019    
Tb14     Tb     0.398900000000     0.015440000000     0.510390000000     4.29925    
Tb15     Tb     0.623940000000     0.013190000000     0.514930000000     6.28343    
Tb16     Tb     0.513880000000     0.902170000000     0.514450000000     4.37808    
Tb17     Tb     0.508650000000     0.127210000000     0.510300000000     6.41155    
Tb18     Tb     0.514080000000     0.021510000000     0.626190000000     3.16763    
Tb19     Tb     0.507840000000     0.396390000000     0.005810000000     6.35588    
Tb20     Tb     0.621770000000     0.502730000000     0.006060000000     4.21446    
Tb21     Tb     0.396410000000     0.512470000000     0.015310000000     6.20495    
Tb22     Tb     0.501560000000     0.509950000000     0.899220000000     4.48542    
Tb23     Tb     0.517780000000     0.505860000000     0.123680000000     6.3858     
Tb24     Tb     0.509130000000     0.621150000000     0.017980000000     3.14535    


