data_structure

_audit_creation_method RASPA-1.0
_audit_creation_date 2023-5-19
_audit_author_name 'Poobodin Mano'

_cell_length_a    20.2358
_cell_length_b    20.2209
_cell_length_c    20.0467
_cell_angle_alpha 90
_cell_angle_beta  90
_cell_angle_gamma 90
_cell_volume      8202.83

_symmetry_cell_setting          triclinic
_symmetry_space_group_name_Hall 'P 1'
_symmetry_space_group_name_H-M  'P 1'
_symmetry_Int_Tables_number     1

_symmetry_equiv_pos_as_xyz 'x,y,z'

loop_
_atom_site_label
_atom_site_type_symbol
_atom_site_fract_x
_atom_site_fract_y
_atom_site_fract_z
_atom_site_charge
C1       C      0.025600000000     0.163630000000     0.159820000000     0.730108   
C2       C      0.022830000000     0.855120000000     0.169380000000     0.676932   
C3       C      0.854440000000     0.010870000000     0.171180000000     0.647962   
C4       C      0.163080000000     0.034910000000     0.161930000000     0.717166   
C5       C      0.004230000000     0.848480000000     0.864620000000     0.559781   
C6       C      0.022440000000     0.153380000000     0.851970000000     0.676306   
C7       C      0.857410000000     0.852160000000     0.023690000000     0.566524   
C8       C      0.165130000000     0.854900000000     0.022980000000     0.701716   
C9       C      0.156930000000     0.160950000000     0.016990000000     0.762835   
C10      C      0.851510000000     0.158070000000     0.003690000000     0.696586   
C11      C      0.851390000000     0.997840000000     0.865800000000     0.561304   
C12      C      0.157030000000     0.013980000000     0.851360000000     0.653302   
C13      C      0.030420000000     0.356440000000     0.360150000000     0.731354   
C14      C      0.023490000000     0.661950000000     0.364100000000     0.691848   
C15      C      0.857560000000     0.497980000000     0.355850000000     0.676384   
C16      C      0.164360000000     0.485300000000     0.366620000000     0.737978   
C17      C      0.991420000000     0.653590000000     0.669540000000     0.558183   
C18      C      0.008310000000     0.349350000000     0.668830000000     0.657317   
C19      C      0.855700000000     0.656610000000     0.507650000000     0.582935   
C20      C      0.161320000000     0.662290000000     0.523110000000     0.677669   
C21      C      0.161600000000     0.352600000000     0.502130000000     0.722317   
C22      C      0.856950000000     0.349480000000     0.490180000000     0.687751   
C23      C      0.851460000000     0.504460000000     0.661620000000     0.569681   
C24      C      0.157760000000     0.506020000000     0.678190000000     0.639862   
C25      C      0.664340000000     0.029290000000     0.366100000000     0.721879   
C26      C      0.359130000000     0.007730000000     0.351350000000     0.672751   
C27      C      0.524050000000     0.844890000000     0.364860000000     0.67678    
C28      C      0.519090000000     0.152070000000     0.353800000000     0.753234   
C29      C      0.352830000000     0.999800000000     0.661180000000     0.565159   
C30      C      0.658040000000     0.025030000000     0.673790000000     0.642529   
C31      C      0.358150000000     0.852410000000     0.515220000000     0.577575   
C32      C      0.354700000000     0.159880000000     0.487070000000     0.693017   
C33      C      0.657950000000     0.159490000000     0.493310000000     0.728249   
C34      C      0.663450000000     0.852460000000     0.517400000000     0.677116   
C35      C      0.499030000000     0.860070000000     0.668360000000     0.571464   
C36      C      0.506820000000     0.166300000000     0.665750000000     0.638098   
C37      C      0.353720000000     0.354060000000     0.005360000000     0.78338    
C38      C      0.356740000000     0.661780000000     0.030640000000     0.796999   
C39      C      0.356880000000     0.509210000000     0.175630000000     0.792394   
C40      C      0.355640000000     0.487850000000     0.861690000000     0.750086   
C41      C      0.663000000000     0.654770000000     0.017000000000     0.665463   
C42      C      0.658350000000     0.348260000000     0.003420000000     0.59243    
C43      C      0.505020000000     0.655090000000     0.170380000000     0.759899   
C44      C      0.494350000000     0.663560000000     0.863740000000     0.753003   
C45      C      0.481770000000     0.358650000000     0.859340000000     0.619012   
C46      C      0.491030000000     0.348870000000     0.169330000000     0.753116   
C47      C      0.661610000000     0.511430000000     0.166570000000     0.684737   
C48      C      0.661090000000     0.493520000000     0.860040000000     0.588991   
C49      C      0.486140000000     0.315370000000     0.287840000000     0.0225558  
C50      C      0.455700000000     0.235010000000     0.198980000000     0.00908696 
C51      C      0.535020000000     0.266650000000     0.317460000000     0.00897152 
C52      C      0.497020000000     0.180380000000     0.233010000000     0.0189489  
C53      C      0.460290000000     0.116920000000     0.224740000000     0.0738076  
C54      C      0.496630000000     0.773260000000     0.202960000000     0.020061   
C55      C      0.490950000000     0.684150000000     0.289630000000     0.0182902  
C56      C      0.543640000000     0.812480000000     0.247600000000     0.00739403 
C57      C      0.538720000000     0.723390000000     0.333810000000     0.010723   
C58      C      0.527300000000     0.703910000000     0.403860000000     0.0737275  
C59      C      0.482290000000     0.832250000000     0.786560000000    -0.0120442  
C60      C      0.496980000000     0.742230000000     0.698300000000    -0.0016604  
C61      C      0.507650000000     0.780400000000     0.835520000000     0.0325087  
C62      C      0.463570000000     0.697650000000     0.749800000000     0.0318777  
C63      C      0.391430000000     0.706960000000     0.748130000000     0.0424333  
C64      C      0.454300000000     0.243880000000     0.823770000000     0.00740655 
C65      C      0.471860000000     0.331600000000     0.738550000000     0.00565296 
C66      C      0.500020000000     0.197280000000     0.784840000000    -0.00295937 
C67      C      0.520710000000     0.286940000000     0.700750000000     0.0142972  
C68      C      0.522280000000     0.307070000000     0.630000000000     0.0718648  
C69      C      0.690050000000     0.277670000000     0.486790000000     0.0179327  
C70      C      0.773760000000     0.188430000000     0.509850000000     0.0192699  
C71      C      0.744580000000     0.318030000000     0.452210000000    -0.000208717
C72      C      0.826540000000     0.228800000000     0.473790000000     0.012137   
C73      C      0.889570000000     0.208360000000     0.503850000000     0.0772645  
C74      C      0.780570000000     0.820280000000     0.536240000000     0.0160014  
C75      C      0.692220000000     0.733960000000     0.527720000000     0.00567935 
C76      C      0.827400000000     0.775280000000     0.496450000000    -0.00354061 
C77      C      0.737250000000     0.692290000000     0.483130000000     0.011335   
C78      C      0.714940000000     0.622940000000     0.485680000000     0.0723302  
C79      C      0.325240000000     0.277140000000     0.462500000000     0.0132548  
C80      C      0.239110000000     0.189850000000     0.461180000000     0.00563574 
C81      C      0.279820000000     0.322620000000     0.503380000000     0.0089157  
C82      C      0.194930000000     0.231480000000     0.506610000000     0.0175704  
C83      C      0.126690000000     0.210460000000     0.493380000000     0.0786409  
C84      C      0.243790000000     0.818250000000     0.489430000000    -0.001679   
C85      C      0.327360000000     0.733830000000     0.529560000000    -0.00048694 
C86      C      0.189440000000     0.781080000000     0.527180000000     0.0086024  
C87      C      0.271680000000     0.700730000000     0.569970000000     0.0166129  
C88      C      0.287130000000     0.631380000000     0.588730000000     0.0764493  
C89      C      0.827690000000     0.488870000000     0.235470000000     0.0139835  
C90      C      0.741560000000     0.476240000000     0.324070000000     0.00434369 
C91      C      0.779320000000     0.531860000000     0.194970000000    -0.00387184 
C92      C      0.697030000000     0.525270000000     0.287720000000     0.019459   
C93      C      0.628280000000     0.514980000000     0.310190000000     0.080505   
C94      C      0.325650000000     0.515980000000     0.295920000000     0.0176075  
C95      C      0.238600000000     0.516680000000     0.206780000000     0.0247413  
C96      C      0.282700000000     0.468380000000     0.337470000000     0.0079637  
C97      C      0.199730000000     0.464710000000     0.246020000000     0.0118754  
C98      C      0.130170000000     0.466220000000     0.224010000000     0.0765274  
C99      C      0.321670000000     0.487760000000     0.741960000000     0.0227119  
C100     C      0.239290000000     0.461340000000     0.831970000000     0.0212845  
C101     C      0.272270000000     0.537590000000     0.712280000000    -0.0210393  
C102     C      0.190980000000     0.511280000000     0.800940000000     0.0067623  
C103     C      0.122800000000     0.494730000000     0.820780000000     0.0624043  
C104     C      0.778600000000     0.481470000000     0.827630000000     0.00379435 
C105     C      0.689250000000     0.464420000000     0.743830000000     0.00558907 
C106     C      0.817380000000     0.523100000000     0.777850000000    -0.00247863 
C107     C      0.729730000000     0.501500000000     0.690580000000     0.011243   
C108     C      0.715670000000     0.468200000000     0.626610000000     0.0754697  
C109     C      0.780560000000     0.686750000000     0.999610000000     0.00862752 
C110     C      0.692470000000     0.773310000000     0.010530000000     0.0174677  
C111     C      0.829450000000     0.733220000000     0.035560000000    -0.00527461 
C112     C      0.739850000000     0.816020000000     0.051710000000     0.00565976 
C113     C      0.717060000000     0.885220000000     0.048390000000     0.0697833  
C114     C      0.774790000000     0.317940000000     0.015740000000    -0.00992277 
C115     C      0.687090000000     0.228910000000     0.997640000000     0.00736863 
C116     C      0.824200000000     0.274320000000     0.978890000000     0.0278565  
C117     C      0.738790000000     0.189950000000     0.957730000000     0.0158401  
C118     C      0.722790000000     0.118940000000     0.950690000000     0.0712057  
C119     C      0.241000000000     0.692470000000     0.057460000000     0.0297509  
C120     C      0.329290000000     0.778000000000     0.057080000000     0.0210125  
C121     C      0.195960000000     0.737590000000     0.016760000000    -0.00517923 
C122     C      0.286180000000     0.824230000000     0.015200000000     0.0132447  
C123     C      0.305550000000     0.892650000000     0.032210000000     0.0727674  
C124     C      0.322500000000     0.238440000000     0.027400000000     0.0101933  
C125     C      0.236650000000     0.327760000000     0.023720000000     0.0257275  
C126     C      0.272980000000     0.189920000000     0.997550000000     0.0200389  
C127     C      0.187510000000     0.279630000000     0.992170000000     0.0185238  
C128     C      0.120380000000     0.302180000000     0.010150000000     0.0755854  
C129     C      0.813440000000     0.983050000000     0.749550000000    -0.00646932 
C130     C      0.731240000000     0.007900000000     0.841220000000    -0.0282438  
C131     C      0.776590000000     0.030790000000     0.703680000000     0.0177634  
C132     C      0.694360000000     0.053750000000     0.792260000000     0.0229861  
C133     C      0.624970000000     0.058160000000     0.813280000000     0.0656624  
C134     C      0.187250000000     0.024560000000     0.731150000000    -0.000412823
C135     C      0.273970000000     0.030300000000     0.820110000000     0.0158483  
C136     C      0.234230000000     0.982220000000     0.688130000000     0.00286052 
C137     C      0.315480000000     0.980660000000     0.781210000000     0.00853701 
C138     C      0.384080000000     0.984650000000     0.804890000000     0.0698101  
C139     C      0.331560000000     0.020000000000     0.229810000000    -0.0215793  
C140     C      0.243310000000     0.998100000000     0.316000000000     0.00603029 
C141     C      0.280430000000     0.062670000000     0.190720000000     0.0180873  
C142     C      0.199880000000     0.049990000000     0.282880000000     0.017597   
C143     C      0.131610000000     0.040680000000     0.306200000000     0.072474   
C144     C      0.697920000000     0.060300000000     0.250520000000     0.0139265  
C145     C      0.783400000000     0.038590000000     0.337500000000     0.0134943  
C146     C      0.735760000000     0.015860000000     0.201280000000    -0.00249326 
C147     C      0.817020000000     0.988950000000     0.290790000000     0.0151225  
C148     C      0.885900000000     0.978700000000     0.311530000000     0.0670784  
C149     C      0.002370000000     0.313970000000     0.786860000000    -0.0041703  
C150     C      0.994290000000     0.230860000000     0.693880000000     0.0178786  
C151     C      0.050660000000     0.268390000000     0.822570000000     0.020366   
C152     C      0.041950000000     0.185450000000     0.730980000000     0.0106715  
C153     C      0.029000000000     0.116770000000     0.709620000000     0.0688382  
C154     C      0.967350000000     0.769960000000     0.702060000000     0.00686481 
C155     C      0.974370000000     0.682140000000     0.788980000000    -0.00170103 
C156     C      0.008950000000     0.816170000000     0.745830000000    -0.00800555 
C157     C      0.017860000000     0.727170000000     0.832510000000     0.011326   
C158     C      0.009530000000     0.707250000000     0.902840000000     0.0704194  
C159     C      0.049600000000     0.740340000000     0.197760000000     0.00406355 
C160     C      0.029160000000     0.827220000000     0.288260000000     0.0089924  
C161     C      0.020600000000     0.690650000000     0.246190000000     0.0207037  
C162     C      0.059410000000     0.774520000000     0.333620000000     0.0239982  
C163     C      0.131850000000     0.774220000000     0.326450000000     0.0446776  
C164     C      0.050530000000     0.241850000000     0.324310000000     0.0186961  
C165     C      0.983310000000     0.320500000000     0.255050000000     0.0191327  
C166     C      0.076240000000     0.209060000000     0.261050000000     0.00383511 
C167     C      0.997120000000     0.278450000000     0.192030000000     0.0211591  
C168     C      0.932930000000     0.268640000000     0.158560000000     0.0690012  
H1       H      0.963010000000     0.960320000000     0.065000000000    -1.19383    
H2       H      0.047620000000     0.047240000000     0.050410000000    -1.14394    
H3       H      0.948550000000     0.113590000000     0.948010000000    -0.629004   
H4       H      0.119290000000     0.946620000000     0.952090000000    -0.575838   
H5       H      0.962800000000     0.552860000000     0.464310000000    -1.28623    
H6       H      0.050220000000     0.467000000000     0.476400000000    -1.11378    
H7       H      0.946820000000     0.391980000000     0.569430000000    -0.530219   
H8       H      0.116110000000     0.563700000000     0.578680000000    -0.604709   
H9       H      0.463070000000     0.957250000000     0.462820000000    -1.2669     
H10      H      0.548810000000     0.045250000000     0.473330000000    -1.08191    
H11      H      0.618350000000     0.950680000000     0.579440000000    -0.532051   
H12      H      0.444460000000     0.119660000000     0.566280000000    -0.556919   
H13      H      0.431640000000     0.576530000000     0.090070000000     1.3879     
H14      H      0.465570000000     0.466210000000     0.974590000000    -0.942908   
H15      H      0.564770000000     0.391710000000     0.074090000000    -0.284392   
H16      H      0.566620000000     0.566690000000     0.902450000000    -0.247043   
H17      H      0.584090000000     0.275290000000     0.294020000000     0.0247059  
H18      H      0.503530000000     0.366410000000     0.298480000000     0.0400093  
H19      H      0.543990000000     0.175760000000     0.204640000000     0.0292896  
H20      H      0.454960000000     0.226390000000     0.144180000000     0.0343123  
H21      H      0.437410000000     0.308410000000     0.312620000000     0.0271537  
H22      H      0.403590000000     0.231330000000     0.216570000000     0.0250184  
H23      H      0.540520000000     0.277730000000     0.371450000000     0.0430906  
H24      H      0.595160000000     0.799160000000     0.233630000000     0.0281006  
H25      H      0.508840000000     0.784140000000     0.150060000000     0.0333584  
H26      H      0.589640000000     0.707150000000     0.320740000000     0.0331994  
H27      H      0.497940000000     0.630390000000     0.298870000000     0.0423553  
H28      H      0.445390000000     0.790920000000     0.212260000000     0.018391   
H29      H      0.439300000000     0.696690000000     0.304100000000     0.0204081  
H30      H      0.537210000000     0.865900000000     0.236510000000     0.0349455  
H31      H      0.562540000000     0.782850000000     0.837270000000     0.0255463  
H32      H      0.507600000000     0.879530000000     0.798330000000     0.0544193  
H33      H      0.473480000000     0.645510000000     0.735380000000     0.032076   
H34      H      0.549940000000     0.728030000000     0.694470000000     0.0378421  
H35      H      0.428460000000     0.839780000000     0.794610000000     0.0451278  
H36      H      0.474710000000     0.732680000000     0.648410000000     0.0487377  
H37      H      0.489540000000     0.793650000000     0.886180000000     0.0369979  
H38      H      0.549970000000     0.199330000000     0.807860000000     0.0398875  
H39      H      0.457170000000     0.231690000000     0.877740000000     0.0415458  
H40      H      0.570710000000     0.297370000000     0.721310000000     0.031066   
H41      H      0.485590000000     0.384280000000     0.730590000000     0.0440704  
H42      H      0.402650000000     0.234390000000     0.807330000000     0.0280025  
H43      H      0.421520000000     0.324270000000     0.717380000000     0.0319849  
H44      H      0.480060000000     0.146650000000     0.791770000000     0.0544886  
H45      H      0.742680000000     0.306550000000     0.397970000000     0.0292253  
H46      H      0.642630000000     0.286180000000     0.460080000000     0.0404333  
H47      H      0.826970000000     0.213500000000     0.420480000000     0.0308517  
H48      H      0.784370000000     0.135150000000     0.500600000000     0.0412548  
H49      H      0.684030000000     0.296370000000     0.538590000000     0.0394117  
H50      H      0.777790000000     0.196680000000     0.564710000000     0.0298705  
H51      H      0.733050000000     0.371410000000     0.457270000000     0.0523499  
H52      H      0.825750000000     0.790890000000     0.443270000000     0.0307535  
H53      H      0.792480000000     0.872630000000     0.524350000000     0.0336983  
H54      H      0.729150000000     0.709240000000     0.430950000000     0.030779   
H55      H      0.639920000000     0.725120000000     0.513370000000     0.0519639  
H56      H      0.790530000000     0.812720000000     0.590260000000     0.0291106  
H57      H      0.698240000000     0.717580000000     0.580400000000     0.0368215  
H58      H      0.878410000000     0.784450000000     0.514720000000     0.042169   
H59      H      0.294990000000     0.319540000000     0.556620000000     0.0300813  
H60      H      0.377450000000     0.288460000000     0.475320000000     0.0400298  
H61      H      0.206320000000     0.217630000000     0.559070000000     0.0290529  
H62      H      0.229010000000     0.136350000000     0.469450000000     0.0413132  
H63      H      0.318300000000     0.289150000000     0.408800000000     0.0244169  
H64      H      0.226940000000     0.201080000000     0.408150000000     0.0289824  
H65      H      0.288760000000     0.374260000000     0.486620000000     0.0378605  
H66      H      0.183420000000     0.804270000000     0.577140000000     0.0332676  
H67      H      0.231700000000     0.871830000000     0.490420000000     0.0415795  
H68      H      0.269610000000     0.728040000000     0.618100000000     0.0381712  
H69      H      0.374560000000     0.729690000000     0.557750000000     0.0470168  
H70      H      0.242230000000     0.802480000000     0.436510000000     0.0385118  
H71      H      0.333370000000     0.707200000000     0.481390000000     0.0387645  
H72      H      0.142320000000     0.787780000000     0.499440000000     0.0407819  
H73      H      0.791370000000     0.584600000000     0.205030000000     0.0295173  
H74      H      0.878970000000     0.506030000000     0.225770000000     0.035277   
H75      H      0.711490000000     0.575750000000     0.304330000000     0.0302112  
H76      H      0.731610000000     0.478420000000     0.378540000000     0.0529526  
H77      H      0.823720000000     0.437090000000     0.217200000000     0.029799   
H78      H      0.729110000000     0.425260000000     0.307200000000     0.0315411  
H79      H      0.788710000000     0.523110000000     0.141110000000     0.0399567  
H80      H      0.299630000000     0.417050000000     0.327120000000     0.0250918  
H81      H      0.378530000000     0.505090000000     0.305990000000     0.0389993  
H82      H      0.219480000000     0.415480000000     0.231180000000     0.0252291  
H83      H      0.229420000000     0.509870000000     0.152500000000     0.0255808  
H84      H      0.315820000000     0.567190000000     0.313530000000     0.0209486  
H85      H      0.220240000000     0.566730000000     0.220680000000     0.0199399  
H86      H      0.291880000000     0.478150000000     0.391190000000     0.0378549  
H87      H      0.281180000000     0.584740000000     0.739610000000     0.0437967  
H88      H      0.372700000000     0.505670000000     0.732310000000     0.0369098  
H89      H      0.201970000000     0.560150000000     0.823940000000     0.0323801  
H90      H      0.231560000000     0.458790000000     0.886840000000     0.0352852  
H91      H      0.315320000000     0.439680000000     0.715850000000     0.0279369  
H92      H      0.228190000000     0.411420000000     0.811400000000     0.0239259  
H93      H      0.284230000000     0.551630000000     0.658590000000     0.10685    
H94      H      0.803910000000     0.575880000000     0.785590000000     0.0350537  
H95      H      0.789800000000     0.499600000000     0.878740000000     0.0422914  
H96      H      0.710480000000     0.552890000000     0.687310000000     0.0372868  
H97      H      0.635740000000     0.471990000000     0.733630000000     0.040434   
H98      H      0.795820000000     0.429340000000     0.824000000000     0.0359685  
H99      H      0.698820000000     0.410290000000     0.739440000000     0.0335879  
H100     H      0.870720000000     0.518290000000     0.790000000000     0.0465569  
H101     H      0.831280000000     0.718700000000     0.089050000000     0.0317716  
H102     H      0.792760000000     0.634910000000     0.013320000000     0.035997   
H103     H      0.734380000000     0.800390000000     0.104650000000     0.0301964  
H104     H      0.641140000000     0.782160000000     0.028390000000     0.03807    
H105     H      0.788530000000     0.691760000000     0.944950000000     0.0333593  
H106     H      0.694830000000     0.789170000000     0.957380000000     0.0335804  
H107     H      0.879300000000     0.724270000000     0.014330000000     0.0501381  
H108     H      0.823980000000     0.288560000000     0.925270000000     0.0277095  
H109     H      0.786230000000     0.370070000000     0.002430000000     0.0447469  
H110     H      0.736690000000     0.210000000000     0.906040000000     0.0301411  
H111     H      0.637760000000     0.222080000000     0.974080000000     0.0395168  
H112     H      0.782430000000     0.313340000000     0.070240000000     0.0449124  
H113     H      0.684600000000     0.208750000000     0.049210000000     0.0364117  
H114     H      0.874300000000     0.285340000000     0.998640000000     0.042858   
H115     H      0.200320000000     0.723520000000     0.963300000000     0.0350862  
H116     H      0.228830000000     0.640220000000     0.045460000000     0.02296    
H117     H      0.299220000000     0.816170000000     0.961910000000     0.0350804  
H118     H      0.382260000000     0.787940000000     0.046100000000     0.0358236  
H119     H      0.230150000000     0.700420000000     0.111270000000     0.0161576  
H120     H      0.321160000000     0.788910000000     0.110950000000     0.0195954  
H121     H      0.144240000000     0.727400000000     0.032320000000     0.0459428  
H122     H      0.281110000000     0.187750000000     0.942700000000     0.0254172  
H123     H      0.372620000000     0.224820000000     0.009300000000     0.0358094  
H124     H      0.192060000000     0.284610000000     0.937080000000     0.0255116  
H125     H      0.226420000000     0.378140000000     0.003780000000     0.0310905  
H126     H      0.322280000000     0.232460000000     0.082570000000     0.0241724  
H127     H      0.228640000000     0.329270000000     0.078700000000     0.0217684  
H128     H      0.284790000000     0.140240000000     0.018110000000     0.0379825  
H129     H      0.798660000000     0.080840000000     0.709640000000     0.0318545  
H130     H      0.866790000000     0.984010000000     0.736460000000     0.0467661  
H131     H      0.715640000000     0.104080000000     0.798790000000     0.029736   
H132     H      0.723510000000     0.029910000000     0.893160000000     0.11047    
H133     H      0.795140000000     0.932180000000     0.739390000000     0.0365082  
H134     H      0.706970000000     0.958420000000     0.840480000000     0.0524054  
H135     H      0.785390000000     0.014980000000     0.651370000000     0.0363576  
H136     H      0.220320000000     0.929420000000     0.694850000000     0.0358719  
H137     H      0.135840000000     0.008340000000     0.721160000000     0.047954   
H138     H      0.297560000000     0.930400000000     0.794900000000     0.0376988  
H139     H      0.283700000000     0.024760000000     0.874460000000     0.0404133  
H140     H      0.191720000000     0.076910000000     0.714760000000     0.0340982  
H141     H      0.289050000000     0.081290000000     0.805610000000     0.0314279  
H142     H      0.225460000000     0.994770000000     0.634920000000     0.0422233  
H143     H      0.290460000000     0.115390000000     0.202900000000     0.0218747  
H144     H      0.383530000000     0.040260000000     0.220940000000     0.104731   
H145     H      0.216050000000     0.099200000000     0.301720000000     0.0274432  
H146     H      0.232650000000     0.996510000000     0.370430000000     0.0421174  
H147     H      0.330770000000     0.969990000000     0.206610000000     0.0438804  
H148     H      0.230350000000     0.948580000000     0.295470000000     0.0333806  
H149     H      0.289520000000     0.056920000000     0.136440000000     0.0442951  
H150     H      0.712390000000     0.966080000000     0.201590000000     0.0351281  
H151     H      0.644260000000     0.058040000000     0.238970000000     0.0407792  
H152     H      0.791870000000     0.940600000000     0.298620000000     0.0269234  
H153     H      0.791670000000     0.023770000000     0.390290000000     0.039881   
H154     H      0.714180000000     0.112180000000     0.242140000000     0.0269058  
H155     H      0.806210000000     0.088170000000     0.330140000000     0.0315371  
H156     H      0.729070000000     0.037030000000     0.150590000000     0.0517076  
H157     H      0.101600000000     0.281590000000     0.806450000000     0.0266963  
H158     H      0.015100000000     0.365930000000     0.798790000000     0.0498852  
H159     H      0.092840000000     0.198150000000     0.714300000000     0.0316756  
H160     H      0.002140000000     0.223780000000     0.639680000000     0.0504131  
H161     H      0.951780000000     0.304110000000     0.806170000000     0.0390725  
H162     H      0.942540000000     0.216200000000     0.705660000000     0.036151   
H163     H      0.047650000000     0.278150000000     0.876970000000     0.0424257  
H164     H      0.061340000000     0.812390000000     0.729510000000     0.0390432  
H165     H      0.976950000000     0.781920000000     0.648840000000     0.0413096  
H166     H      0.070130000000     0.716430000000     0.819160000000     0.0364194  
H167     H      0.987770000000     0.629620000000     0.798500000000     0.0492967  
H168     H      0.914290000000     0.780370000000     0.712040000000     0.032381   
H169     H      0.921780000000     0.688680000000     0.804000000000     0.036827   
H170     H      0.992390000000     0.867570000000     0.735600000000     0.0476341  
H171     H      0.966260000000     0.687580000000     0.238410000000     0.0261048  
H172     H      0.031610000000     0.727200000000     0.147070000000     0.0442929  
H173     H      0.048100000000     0.788220000000     0.386090000000     0.0390745  
H174     H      0.976330000000     0.833700000000     0.302040000000     0.0366111  
H175     H      0.104280000000     0.735080000000     0.196790000000     0.0362901  
H176     H      0.053790000000     0.875690000000     0.297210000000     0.0447467  
H177     H      0.041440000000     0.641140000000     0.234100000000     0.0333148  
H178     H      0.122610000000     0.234450000000     0.245840000000     0.0219381  
H179     H      0.090860000000     0.241350000000     0.361820000000     0.037218   
H180     H      0.030000000000     0.307030000000     0.158310000000     0.0416175  
H181     H      0.981790000000     0.373310000000     0.239770000000     0.0451876  
H182     H      0.007980000000     0.212950000000     0.343940000000     0.0421972  
H183     H      0.932940000000     0.309650000000     0.274960000000     0.0266217  
H184     H      0.089180000000     0.157260000000     0.272200000000     0.0420439  
N1       N      0.514430000000     0.197850000000     0.303530000000    -0.232525   
N2       N      0.479950000000     0.301300000000     0.216410000000    -0.235856   
N3       N      0.432080000000     0.055410000000     0.211110000000    -0.158431   
N4       N      0.532860000000     0.795410000000     0.318490000000    -0.218793   
N5       N      0.500380000000     0.702250000000     0.219130000000    -0.245986   
N6       N      0.515870000000     0.684660000000     0.467670000000    -0.110931   
N7       N      0.488020000000     0.712470000000     0.817380000000    -0.237648   
N8       N      0.493300000000     0.812860000000     0.716680000000    -0.194933   
N9       N      0.325110000000     0.716530000000     0.747460000000    -0.11389    
N10      N      0.505640000000     0.215770000000     0.713440000000    -0.207183   
N11      N      0.470730000000     0.313220000000     0.809660000000    -0.213769   
N12      N      0.524410000000     0.326520000000     0.565250000000    -0.122371   
N13      N      0.810950000000     0.300610000000     0.477530000000    -0.214982   
N14      N      0.706390000000     0.206700000000     0.489650000000    -0.233505   
N15      N      0.943120000000     0.183820000000     0.535600000000    -0.11532    
N16      N      0.807750000000     0.704790000000     0.500670000000    -0.200835   
N17      N      0.710760000000     0.804200000000     0.523010000000    -0.218661   
N18      N      0.692090000000     0.559940000000     0.486830000000    -0.105723   
N19      N      0.209210000000     0.303690000000     0.498320000000    -0.227842   
N20      N      0.308200000000     0.207130000000     0.473200000000    -0.221836   
N21      N      0.066080000000     0.186210000000     0.478970000000    -0.111509   
N22      N      0.207330000000     0.710940000000     0.535640000000    -0.21539    
N23      N      0.310590000000     0.803830000000     0.515590000000    -0.199215   
N24      N      0.297090000000     0.566530000000     0.610300000000    -0.158863   
N25      N      0.709670000000     0.519880000000     0.214620000000    -0.218737   
N26      N      0.810940000000     0.490120000000     0.306960000000    -0.220384   
N27      N      0.565570000000     0.505450000000     0.332170000000    -0.127588   
N28      N      0.212210000000     0.474050000000     0.318780000000    -0.232557   
N29      N      0.309150000000     0.512130000000     0.224190000000    -0.251139   
N30      N      0.067120000000     0.468960000000     0.201230000000    -0.124167   
N31      N      0.203860000000     0.515940000000     0.727840000000    -0.203501   
N32      N      0.307850000000     0.478820000000     0.813910000000    -0.240149   
N33      N      0.060230000000     0.481700000000     0.841120000000    -0.110575   
N34      N      0.801380000000     0.504770000000     0.708220000000    -0.195091   
N35      N      0.707850000000     0.484410000000     0.811640000000    -0.203662   
N36      N      0.700700000000     0.435830000000     0.569400000000    -0.107536   
N37      N      0.809640000000     0.803590000000     0.031260000000    -0.195647   
N38      N      0.710980000000     0.702960000000     0.014390000000    -0.21921    
N39      N      0.693840000000     0.948060000000     0.046050000000    -0.106159   
N40      N      0.805230000000     0.204300000000     0.985180000000    -0.21687    
N41      N      0.705550000000     0.299850000000     0.001140000000    -0.203244   
N42      N      0.714640000000     0.051460000000     0.939810000000    -0.140636   
N43      N      0.214510000000     0.808100000000     0.023860000000    -0.218076   
N44      N      0.310530000000     0.709060000000     0.044600000000    -0.256696   
N45      N      0.324690000000     0.955160000000     0.047370000000    -0.125869   
N46      N      0.203770000000     0.209940000000     0.010230000000    -0.236435   
N47      N      0.305280000000     0.307260000000     0.011240000000    -0.244169   
N48      N      0.058840000000     0.324230000000     0.025200000000    -0.122011   
N49      N      0.705940000000     0.033360000000     0.722040000000    -0.212302   
N50      N      0.800970000000     0.998800000000     0.820290000000    -0.189191   
N51      N      0.563280000000     0.061750000000     0.838910000000    -0.101871   
N52      N      0.304060000000     0.990620000000     0.708460000000    -0.194724   
N53      N      0.204120000000     0.020740000000     0.802710000000    -0.214394   
N54      N      0.445650000000     0.988520000000     0.830850000000    -0.102746   
N55      N      0.211160000000     0.047470000000     0.209590000000    -0.228889   
N56      N      0.313240000000     0.011630000000     0.301110000000    -0.215387   
N57      N      0.069730000000     0.033880000000     0.330910000000    -0.115495   
N58      N      0.806310000000     0.008880000000     0.220060000000    -0.212844   
N59      N      0.712870000000     0.042110000000     0.320100000000    -0.233677   
N60      N      0.947800000000     0.966570000000     0.333940000000    -0.115636   
N61      N      0.036800000000     0.199130000000     0.803670000000    -0.217996   
N62      N      0.003930000000     0.300010000000     0.714890000000    -0.215693   
N63      N      0.015170000000     0.054590000000     0.688340000000    -0.109636   
N64      N      0.004990000000     0.798420000000     0.817520000000    -0.192842   
N65      N      0.980910000000     0.700280000000     0.718180000000    -0.195518   
N66      N      0.003140000000     0.687570000000     0.967210000000    -0.115673   
N67      N      0.033480000000     0.708530000000     0.316250000000    -0.22716    
N68      N      0.032530000000     0.808580000000     0.217320000000    -0.220097   
N69      N      0.198170000000     0.773030000000     0.316880000000    -0.117598   
N70      N      0.028610000000     0.213770000000     0.205990000000    -0.228414   
N71      N      0.029480000000     0.309790000000     0.310690000000    -0.231967   
N72      N      0.872470000000     0.255110000000     0.133270000000    -0.120653   
O1       O      0.017200000000     0.180160000000     0.095780000000    -1.11498    
O2       O      0.021870000000     0.834540000000     0.106060000000    -0.808197   
O3       O      0.918830000000     0.009380000000     0.188640000000    -0.97239    
O4       O      0.100400000000     0.027820000000     0.181720000000    -1.04579    
O5       O      0.181010000000     0.030090000000     0.097700000000    -1.06937    
O6       O      0.834610000000     0.012900000000     0.107240000000    -0.752013   
O7       O      0.016320000000     0.918950000000     0.187890000000    -0.982438   
O8       O      0.027330000000     0.101060000000     0.181430000000    -1.04832    
O9       O      0.081970000000     0.946280000000     0.084790000000    -2.09884    
O10      O      0.944140000000     0.079790000000     0.083790000000    -2.10035    
O11      O      0.939560000000     0.936260000000     0.092090000000    -0.862002   
O12      O      0.022070000000     0.020360000000     0.025950000000    -2.60929    
O13      O      0.005290000000     0.832540000000     0.930000000000    -0.709838   
O14      O      0.019330000000     0.174130000000     0.915620000000    -0.976902   
O15      O      0.838050000000     0.916040000000     0.021290000000    -0.696878   
O16      O      0.181960000000     0.918720000000     0.017610000000    -1.0105     
O17      O      0.177260000000     0.097970000000     0.017050000000    -1.10443    
O18      O      0.833360000000     0.095000000000     0.014090000000    -0.735021   
O19      O      0.914500000000     0.000020000000     0.843280000000    -0.572028   
O20      O      0.093500000000     0.008190000000     0.833140000000    -0.60981    
O21      O      0.834960000000     0.996990000000     0.930800000000    -0.687534   
O22      O      0.176890000000     0.013920000000     0.915610000000    -0.947667   
O23      O      0.921790000000     0.833410000000     0.021700000000    -0.715323   
O24      O      0.915030000000     0.177180000000     0.003610000000    -1.00782    
O25      O      0.093320000000     0.177870000000     0.018670000000    -1.13902    
O26      O      0.101740000000     0.834820000000     0.024660000000    -0.754554   
O27      O      0.004950000000     0.911670000000     0.842650000000    -0.586027   
O28      O      0.014700000000     0.089960000000     0.834590000000    -0.618733   
O29      O      0.075510000000     0.074100000000     0.945540000000    -2.0989     
O30      O      0.946550000000     0.942550000000     0.954110000000    -1.56002    
O31      O      0.933770000000     0.070760000000     0.938760000000    -1.19666    
O32      O      0.076700000000     0.932110000000     0.940870000000    -1.23474    
O33      O      0.032410000000     0.336390000000     0.423750000000    -1.04425    
O34      O      0.023670000000     0.680760000000     0.428170000000    -0.794557   
O35      O      0.921750000000     0.504090000000     0.338560000000    -1.00522    
O36      O      0.101830000000     0.491450000000     0.346920000000    -1.12472    
O37      O      0.182580000000     0.490030000000     0.430820000000    -1.06952    
O38      O      0.836750000000     0.497640000000     0.419230000000    -0.804975   
O39      O      0.015440000000     0.599090000000     0.344070000000    -1.07103    
O40      O      0.022620000000     0.419510000000     0.342190000000    -1.0911     
O41      O      0.083120000000     0.570110000000     0.447220000000    -2.10366    
O42      O      0.948600000000     0.434570000000     0.440490000000    -2.15433    
O43      O      0.939330000000     0.577550000000     0.437950000000    -0.877835   
O44      O      0.023900000000     0.491800000000     0.502180000000    -2.5962     
O45      O      0.994710000000     0.673860000000     0.605310000000    -0.701086   
O46      O      0.008960000000     0.332190000000     0.604110000000    -0.959746   
O47      O      0.837190000000     0.592400000000     0.507940000000    -0.737426   
O48      O      0.180970000000     0.598650000000     0.520870000000    -0.934982   
O49      O      0.180890000000     0.416040000000     0.507120000000    -1.0558     
O50      O      0.836780000000     0.412870000000     0.493710000000    -0.745048   
O51      O      0.914470000000     0.501570000000     0.683860000000    -0.581902   
O52      O      0.093390000000     0.502920000000     0.694340000000    -0.614106   
O53      O      0.835300000000     0.506590000000     0.596360000000    -0.727144   
O54      O      0.178790000000     0.504730000000     0.614430000000    -0.918949   
O55      O      0.919600000000     0.676330000000     0.510730000000    -0.729667   
O56      O      0.920740000000     0.332300000000     0.496750000000    -0.952136   
O57      O      0.098240000000     0.334720000000     0.502630000000    -1.07355    
O58      O      0.097490000000     0.680200000000     0.518040000000    -0.75197    
O59      O      0.997200000000     0.589780000000     0.688630000000    -0.580545   
O60      O      0.008590000000     0.412250000000     0.689870000000    -0.63535    
O61      O      0.078150000000     0.434010000000     0.580830000000    -2.00517    
O62      O      0.945690000000     0.563810000000     0.575330000000    -1.59769    
O63      O      0.934040000000     0.434400000000     0.583270000000    -1.25738    
O64      O      0.073710000000     0.576890000000     0.591190000000    -1.1821     
O65      O      0.681970000000     0.022460000000     0.429960000000    -1.06445    
O66      O      0.337430000000     0.008770000000     0.414810000000    -0.791834   
O67      O      0.520820000000     0.908040000000     0.343410000000    -1.02344    
O68      O      0.519940000000     0.088240000000     0.337530000000    -1.07991    
O69      O      0.519930000000     0.173650000000     0.416990000000    -1.06587    
O70      O      0.520210000000     0.828740000000     0.429390000000    -0.79875    
O71      O      0.423380000000     0.002480000000     0.335160000000    -1.00594    
O72      O      0.601950000000     0.023960000000     0.344920000000    -1.08728    
O73      O      0.446860000000     0.074060000000     0.437620000000    -2.12727    
O74      O      0.583860000000     0.941330000000     0.445720000000    -2.10903    
O75      O      0.440000000000     0.931540000000     0.437090000000    -0.874815   
O76      O      0.522720000000     0.020460000000     0.499370000000    -2.59659    
O77      O      0.335320000000     0.999690000000     0.595890000000    -0.71564    
O78      O      0.678070000000     0.019380000000     0.610050000000    -0.944216   
O79      O      0.422340000000     0.833880000000     0.518630000000    -0.722892   
O80      O      0.417620000000     0.179370000000     0.494380000000    -0.978327   
O81      O      0.594730000000     0.178590000000     0.493100000000    -1.08261    
O82      O      0.599930000000     0.833760000000     0.514080000000    -0.76541    
O83      O      0.500960000000     0.924310000000     0.687120000000    -0.572556   
O84      O      0.504550000000     0.103180000000     0.686520000000    -0.618151   
O85      O      0.503140000000     0.839240000000     0.604700000000    -0.726592   
O86      O      0.508880000000     0.182360000000     0.600520000000    -0.933708   
O87      O      0.337970000000     0.916030000000     0.509210000000    -0.741892   
O88      O      0.682240000000     0.916410000000     0.518440000000    -0.941877   
O89      O      0.677030000000     0.096580000000     0.500850000000    -1.073      
O90      O      0.335690000000     0.096110000000     0.491520000000    -0.765634   
O91      O      0.415580000000     0.007650000000     0.682160000000    -0.581312   
O92      O      0.593930000000     0.022490000000     0.691260000000    -0.607477   
O93      O      0.576170000000     0.080590000000     0.576540000000    -2.01505    
O94      O      0.447110000000     0.948310000000     0.574110000000    -1.6058     
O95      O      0.575230000000     0.937730000000     0.590480000000    -1.24029    
O96      O      0.432050000000     0.077200000000     0.580370000000    -1.23823    
O97      O      0.416590000000     0.334180000000     0.003360000000    -0.933419   
O98      O      0.420070000000     0.680830000000     0.024270000000    -1.21543    
O99      O      0.337380000000     0.511010000000     0.111250000000    -1.32328    
O100     O      0.337090000000     0.490760000000     0.925720000000    -1.31301    
O101     O      0.418340000000     0.493880000000     0.841950000000    -0.90544    
O102     O      0.420420000000     0.505150000000     0.194570000000    -1.20601    
O103     O      0.336600000000     0.598490000000     0.027120000000    -1.36491    
O104     O      0.335740000000     0.417540000000     0.007380000000    -1.3314     
O105     O      0.435190000000     0.572620000000     0.945440000000    -2.39958    
O106     O      0.435700000000     0.434460000000     0.080820000000    -2.43161    
O107     O      0.457300000000     0.556790000000     0.069160000000    -4.91247    
O108     O      0.491700000000     0.490930000000     0.000720000000    -2.61849    
O109     O      0.599240000000     0.674470000000     0.020100000000    -1.07188    
O110     O      0.594360000000     0.330310000000     0.004010000000    -0.818827   
O111     O      0.505320000000     0.590940000000     0.189550000000    -1.14973    
O112     O      0.494500000000     0.600210000000     0.843330000000    -0.855233   
O113     O      0.489090000000     0.421850000000     0.841490000000    -0.873996   
O114     O      0.497700000000     0.411610000000     0.189770000000    -1.16207    
O115     O      0.680500000000     0.507540000000     0.102080000000    -0.598194   
O116     O      0.681070000000     0.496230000000     0.923720000000    -0.597045   
O117     O      0.598060000000     0.508590000000     0.186050000000    -1.10346    
O118     O      0.597140000000     0.497970000000     0.841560000000    -0.789317   
O119     O      0.507350000000     0.675840000000     0.106380000000    -1.14966    
O120     O      0.493320000000     0.330910000000     0.104790000000    -0.856703   
O121     O      0.485010000000     0.337690000000     0.922810000000    -0.877969   
O122     O      0.500340000000     0.681410000000     0.927670000000    -1.17901    
O123     O      0.681550000000     0.590660000000     0.013020000000    -0.584625   
O124     O      0.678470000000     0.411500000000     0.007900000000    -0.596745   
O125     O      0.567880000000     0.435800000000     0.943370000000    -1.63483    
O126     O      0.570660000000     0.565000000000     0.077860000000    -2.17848    
O127     O      0.579570000000     0.433510000000     0.087720000000    -1.58799    
O128     O      0.580020000000     0.578470000000     0.945710000000    -1.60244    
Tb1      Tb     0.009210000000     0.008920000000     0.125920000000     6.22047    
Tb2      Tb     0.011910000000     0.895730000000     0.019580000000     4.30679    
Tb3      Tb     0.005110000000     0.117630000000     0.007810000000     6.78691    
Tb4      Tb     0.897380000000     0.007150000000     0.019170000000     4.09727    
Tb5      Tb     0.120180000000     0.006690000000     0.009360000000     6.60427    
Tb6      Tb     0.008330000000     0.004460000000     0.899970000000     3.11756    
Tb7      Tb     0.011180000000     0.508270000000     0.402660000000     6.58983    
Tb8      Tb     0.010170000000     0.615950000000     0.513040000000     4.2651     
Tb9      Tb     0.008900000000     0.393240000000     0.514160000000     6.37448    
Tb10     Tb     0.898120000000     0.502250000000     0.506970000000     4.41154    
Tb11     Tb     0.121650000000     0.506800000000     0.520330000000     6.37701    
Tb12     Tb     0.007700000000     0.500230000000     0.627300000000     3.15043    
Tb13     Tb     0.511280000000     0.001220000000     0.400240000000     6.44386    
Tb14     Tb     0.397410000000     0.007220000000     0.505030000000     4.37095    
Tb15     Tb     0.620530000000     0.006740000000     0.518020000000     6.32365    
Tb16     Tb     0.511820000000     0.896140000000     0.512640000000     4.33951    
Tb17     Tb     0.505990000000     0.119060000000     0.510260000000     6.45618    
Tb18     Tb     0.507590000000     0.013980000000     0.625050000000     3.12106    
Tb19     Tb     0.394340000000     0.507270000000     0.017410000000     8.33032    
Tb20     Tb     0.506370000000     0.617560000000     0.014420000000     7.31963    
Tb21     Tb     0.506040000000     0.392810000000     0.015310000000     5.05409    
Tb22     Tb     0.506100000000     0.500670000000     0.128910000000     7.38413    
Tb23     Tb     0.506730000000     0.509220000000     0.902330000000     4.93233    
Tb24     Tb     0.618660000000     0.501290000000     0.011910000000     3.01722    


