data_structure

_audit_creation_method RASPA-1.0
_audit_creation_date 2023-5-19
_audit_author_name 'Poobodin Mano'

_cell_length_a    32.3685
_cell_length_b    32.4464
_cell_length_c    32.4121
_cell_angle_alpha 90
_cell_angle_beta  90
_cell_angle_gamma 90
_cell_volume      34040.5

_symmetry_cell_setting          triclinic
_symmetry_space_group_name_Hall 'P 1'
_symmetry_space_group_name_H-M  'P 1'
_symmetry_Int_Tables_number     1

_symmetry_equiv_pos_as_xyz 'x,y,z'

loop_
_atom_site_label
_atom_site_type_symbol
_atom_site_fract_x
_atom_site_fract_y
_atom_site_fract_z
_atom_site_charge
Br1      Br     0.499470000000     0.197260000000     0.445950000000    -0.242418   
Br2      Br     0.529390000000     0.943420000000     0.314390000000    -0.237499   
Br3      Br     0.483730000000     0.941420000000     0.693960000000    -0.206996   
Br4      Br     0.505270000000     0.065190000000     0.699830000000    -0.219733   
Br5      Br     0.690750000000     0.074770000000     0.529140000000    -0.216016   
Br6      Br     0.815140000000     0.566680000000     0.480940000000    -0.21499    
Br7      Br     0.310140000000     0.065870000000     0.493110000000    -0.214679   
Br8      Br     0.444700000000     0.813610000000     0.518500000000    -0.234244   
Br9      Br     0.942930000000     0.516360000000     0.312740000000    -0.240728   
Br10     Br     0.443470000000     0.502640000000     0.197340000000    -0.239647   
Br11     Br     0.194830000000     0.481890000000     0.567950000000    -0.241448   
Br12     Br     0.814980000000     0.481830000000     0.566080000000    -0.21324    
Br13     Br     0.811090000000     0.948950000000     0.003930000000    -0.214877   
Br14     Br     0.813200000000     0.072000000000     0.996610000000    -0.205272   
Br15     Br     0.190880000000     0.938110000000     0.045560000000    -0.233916   
Br16     Br     0.448660000000     0.311920000000     0.009560000000    -0.246479   
Br17     Br     0.945570000000     0.988210000000     0.813200000000    -0.200555   
Br18     Br     0.315870000000     0.974180000000     0.567280000000    -0.206161   
Br19     Br     0.065540000000     0.005150000000     0.197270000000    -0.226352   
Br20     Br     0.696090000000     0.000940000000     0.442780000000    -0.217819   
Br21     Br     0.034190000000     0.063230000000     0.811580000000    -0.219634   
Br22     Br     0.999170000000     0.811440000000     0.949100000000    -0.226348   
Br23     Br     0.968470000000     0.941940000000     0.193910000000    -0.216474   
Br24     Br     0.006770000000     0.198520000000     0.063980000000    -0.248544   
C1       C      0.016670000000     0.103020000000     0.097040000000     0.727738   
C2       C      0.001700000000     0.910830000000     0.103820000000     0.686304   
C3       C      0.904970000000     0.014320000000     0.098240000000     0.673327   
C4       C      0.097600000000     0.017950000000     0.101740000000     0.741589   
C5       C      0.002510000000     0.906980000000     0.913700000000     0.571822   
C6       C      0.016160000000     0.097500000000     0.905560000000     0.65711    
C7       C      0.906740000000     0.912950000000     0.003610000000     0.595839   
C8       C      0.098030000000     0.906660000000     0.019620000000     0.700713   
C9       C      0.101460000000     0.097820000000     0.017950000000     0.703348   
C10      C      0.909790000000     0.102790000000     0.006210000000     0.698364   
C11      C      0.912480000000     0.001100000000     0.908710000000     0.576489   
C12      C      0.103400000000     0.003740000000     0.910620000000     0.645021   
C13      C      0.018950000000     0.409520000000     0.410210000000     0.717917   
C14      C      0.007960000000     0.601570000000     0.409590000000     0.680318   
C15      C      0.909040000000     0.500960000000     0.407430000000     0.701876   
C16      C      0.100510000000     0.491390000000     0.411090000000     0.725844   
C17      C      0.000060000000     0.598500000000     0.599730000000     0.555091   
C18      C      0.010300000000     0.408420000000     0.601440000000     0.650267   
C19      C      0.908750000000     0.598100000000     0.505090000000     0.603381   
C20      C      0.099830000000     0.601780000000     0.499250000000     0.690362   
C21      C      0.099820000000     0.410670000000     0.491570000000     0.718876   
C22      C      0.907720000000     0.408500000000     0.495250000000     0.687398   
C23      C      0.908260000000     0.505820000000     0.597850000000     0.580465   
C24      C      0.100050000000     0.497500000000     0.601940000000     0.672844   
C25      C      0.600940000000     0.018780000000     0.412110000000     0.748131   
C26      C      0.408590000000     0.008760000000     0.408120000000     0.672905   
C27      C      0.509630000000     0.909730000000     0.407920000000     0.693938   
C28      C      0.514590000000     0.102410000000     0.412410000000     0.743985   
C29      C      0.409130000000     0.999900000000     0.598370000000     0.59814    
C30      C      0.599550000000     0.008730000000     0.603580000000     0.648841   
C31      C      0.411370000000     0.908640000000     0.503730000000     0.604106   
C32      C      0.406280000000     0.099620000000     0.498180000000     0.698598   
C33      C      0.599090000000     0.100440000000     0.495960000000     0.734753   
C34      C      0.601990000000     0.909410000000     0.498610000000     0.690986   
C35      C      0.502170000000     0.909610000000     0.599100000000     0.575205   
C36      C      0.508000000000     0.099230000000     0.603810000000     0.666376   
C37      C      0.412890000000     0.406830000000     0.018160000000     0.740735   
C38      C      0.605010000000     0.413330000000     0.007010000000     0.680991   
C39      C      0.504270000000     0.410080000000     0.907760000000     0.6879     
C40      C      0.497710000000     0.409860000000     0.099930000000     0.737816   
C41      C      0.596080000000     0.602420000000     0.001280000000     0.558779   
C42      C      0.404840000000     0.598350000000     0.012780000000     0.648606   
C43      C      0.598380000000     0.510960000000     0.909510000000     0.585809   
C44      C      0.601650000000     0.500080000000     0.100100000000     0.706446   
C45      C      0.411000000000     0.489740000000     0.101750000000     0.735383   
C46      C      0.407460000000     0.494670000000     0.910080000000     0.698259   
C47      C      0.503270000000     0.599370000000     0.910210000000     0.567352   
C48      C      0.496720000000     0.601630000000     0.101170000000     0.66037    
C49      C      0.509230000000     0.204130000000     0.360260000000    -0.149871   
C50      C      0.499940000000     0.338720000000     0.118730000000     0.11419    
C51      C      0.493550000000     0.389580000000     0.170720000000     0.111627   
C52      C      0.501550000000     0.307610000000     0.148570000000    -0.117016   
C53      C      0.531020000000     0.252570000000     0.219160000000    -0.0349499  
C54      C      0.534490000000     0.222520000000     0.250040000000    -0.0308075  
C55      C      0.502330000000     0.284980000000     0.222850000000    -0.0102487  
C56      C      0.494810000000     0.359200000000     0.201360000000    -0.116106   
C57      C      0.509290000000     0.224050000000     0.285370000000    -0.0170945  
C58      C      0.520170000000     0.151040000000     0.310150000000    -0.126535   
C59      C      0.480170000000     0.256150000000     0.288660000000    -0.0305062  
C60      C      0.521510000000     0.122040000000     0.342100000000     0.113537   
C61      C      0.510250000000     0.174600000000     0.391820000000     0.208098   
C62      C      0.476850000000     0.286250000000     0.257930000000    -0.0346077  
C63      C      0.499330000000     0.317610000000     0.190540000000     0.0641734  
C64      C      0.513290000000     0.192650000000     0.318910000000     0.0802662  
C65      C      0.511600000000     0.858900000000     0.306000000000    -0.149098   
C66      C      0.493700000000     0.620120000000     0.172090000000     0.114858   
C67      C      0.494260000000     0.672220000000     0.120760000000     0.101414   
C68      C      0.493320000000     0.649830000000     0.203110000000    -0.116211   
C69      C      0.520700000000     0.717810000000     0.260400000000    -0.0341301  
C70      C      0.523340000000     0.748330000000     0.290560000000    -0.0299799  
C71      C      0.495900000000     0.723670000000     0.225280000000    -0.010041   
C72      C      0.494150000000     0.702730000000     0.151000000000    -0.112571   
C73      C      0.501480000000     0.785400000000     0.286040000000    -0.0169714  
C74      C      0.502030000000     0.808470000000     0.359350000000    -0.123238   
C75      C      0.476540000000     0.791270000000     0.251100000000    -0.0303302  
C76      C      0.504670000000     0.839690000000     0.388620000000     0.111066   
C77      C      0.514730000000     0.889780000000     0.335930000000     0.209233   
C78      C      0.473660000000     0.760640000000     0.221060000000    -0.0341417  
C79      C      0.494070000000     0.691690000000     0.192750000000     0.0644334  
C80      C      0.504900000000     0.818040000000     0.317570000000     0.0822474  
C81      C      0.497510000000     0.856320000000     0.700380000000    -0.136284   
C82      C      0.507470000000     0.617560000000     0.838900000000     0.0985982  
C83      C      0.502050000000     0.670090000000     0.889310000000     0.0929394  
C84      C      0.508200000000     0.646980000000     0.807350000000    -0.108052   
C85      C      0.485740000000     0.714010000000     0.745520000000    -0.0343624  
C86      C      0.485590000000     0.744210000000     0.714560000000    -0.0313497  
C87      C      0.506100000000     0.720910000000     0.783340000000    -0.0080525  
C88      C      0.502620000000     0.700340000000     0.858460000000    -0.104598   
C89      C      0.505620000000     0.782180000000     0.720640000000    -0.012935   
C90      C      0.507930000000     0.806760000000     0.646670000000    -0.111938   
C91      C      0.526470000000     0.788820000000     0.758170000000    -0.0311017  
C92      C      0.506720000000     0.838770000000     0.617650000000     0.104907   
C93      C      0.496020000000     0.887880000000     0.670870000000     0.197359   
C94      C      0.526740000000     0.758640000000     0.789030000000    -0.0338733  
C95      C      0.505650000000     0.689060000000     0.816750000000     0.0581806  
C96      C      0.503800000000     0.815380000000     0.688730000000     0.0751747  
C97      C      0.509870000000     0.151320000000     0.705240000000    -0.145197   
C98      C      0.503510000000     0.391090000000     0.836950000000     0.107767   
C99      C      0.506410000000     0.339380000000     0.888660000000     0.115358   
C100     C      0.504770000000     0.361240000000     0.806140000000    -0.117332   
C101     C      0.483690000000     0.290380000000     0.749310000000    -0.0341158  
C102     C      0.484980000000     0.259780000000     0.719170000000    -0.0302391  
C103     C      0.508790000000     0.287470000000     0.784560000000    -0.0108749  
C104     C      0.507610000000     0.308730000000     0.858620000000    -0.118281   
C105     C      0.511270000000     0.225690000000     0.723840000000    -0.0171699  
C106     C      0.512030000000     0.201460000000     0.650880000000    -0.127842   
C107     C      0.536660000000     0.222970000000     0.758830000000    -0.0300062  
C108     C      0.511180000000     0.169610000000     0.622190000000     0.120286   
C109     C      0.508760000000     0.119740000000     0.675990000000     0.201826   
C110     C      0.535480000000     0.253620000000     0.788900000000    -0.0336929  
C111     C      0.507010000000     0.319550000000     0.816840000000     0.0664376  
C112     C      0.511330000000     0.192420000000     0.692850000000     0.0830667  
C113     C      0.699710000000     0.154250000000     0.496060000000    -0.149847   
C114     C      0.837270000000     0.390660000000     0.483990000000     0.11071    
C115     C      0.887000000000     0.337950000000     0.493710000000     0.113346   
C116     C      0.805930000000     0.361410000000     0.480070000000    -0.111519   
C117     C      0.742470000000     0.295570000000     0.498280000000    -0.0341143  
C118     C      0.711630000000     0.265420000000     0.497430000000    -0.0295463  
C119     C      0.781650000000     0.287840000000     0.481050000000    -0.00909054 
C120     C      0.856270000000     0.307840000000     0.490320000000    -0.115897   
C121     C      0.719360000000     0.226710000000     0.479690000000    -0.0167686  
C122     C      0.646480000000     0.200700000000     0.473960000000    -0.124251   
C123     C      0.758140000000     0.219180000000     0.461730000000    -0.0302288  
C124     C      0.617590000000     0.169070000000     0.478780000000     0.112867   
C125     C      0.670150000000     0.123300000000     0.501530000000     0.214839   
C126     C      0.788870000000     0.249440000000     0.462220000000    -0.034092   
C127     C      0.815050000000     0.319370000000     0.483570000000     0.0648361  
C128     C      0.688120000000     0.193350000000     0.482430000000     0.0822282  
C129     C      0.807540000000     0.650950000000     0.499040000000    -0.142145   
C130     C      0.673110000000     0.890800000000     0.501700000000     0.117097   
C131     C      0.622140000000     0.838950000000     0.493810000000     0.107824   
C132     C      0.704210000000     0.861010000000     0.502970000000    -0.114514   
C133     C      0.765360000000     0.792780000000     0.483640000000    -0.0339008  
C134     C      0.795700000000     0.762180000000     0.485770000000    -0.0303339  
C135     C      0.726620000000     0.786910000000     0.502430000000    -0.00946313 
C136     C      0.652470000000     0.808390000000     0.494780000000    -0.113141   
C137     C      0.787880000000     0.724990000000     0.506540000000    -0.0152964  
C138     C      0.860810000000     0.700020000000     0.514160000000    -0.119406   
C139     C      0.749380000000     0.719290000000     0.525720000000    -0.030748   
C140     C      0.889720000000     0.668130000000     0.513460000000     0.10485    
C141     C      0.837060000000     0.619450000000     0.497930000000     0.201698   
C142     C      0.719150000000     0.749920000000     0.523780000000    -0.0337553  
C143     C      0.694080000000     0.819170000000     0.499870000000     0.0652371  
C144     C      0.819180000000     0.691580000000     0.506990000000     0.078313   
C145     C      0.304900000000     0.152060000000     0.488020000000    -0.144143   
C146     C      0.170820000000     0.392680000000     0.483950000000     0.116325   
C147     C      0.119770000000     0.340310000000     0.483900000000     0.112765   
C148     C      0.202090000000     0.363140000000     0.481460000000    -0.118245   
C149     C      0.259800000000     0.293670000000     0.506450000000    -0.0342382  
C150     C      0.289920000000     0.262860000000     0.508150000000    -0.0302616  
C151     C      0.224990000000     0.289260000000     0.480870000000    -0.0111017  
C152     C      0.150280000000     0.309980000000     0.481230000000    -0.120098   
C153     C      0.286000000000     0.226900000000     0.484250000000    -0.0160043  
C154     C      0.359210000000     0.202140000000     0.490750000000    -0.123705   
C155     C      0.251530000000     0.222830000000     0.458120000000    -0.0308017  
C156     C      0.387820000000     0.170200000000     0.494500000000     0.11851    
C157     C      0.334110000000     0.120390000000     0.491780000000     0.204121   
C158     C      0.221340000000     0.253610000000     0.456510000000    -0.0344019  
C159     C      0.192060000000     0.321190000000     0.480700000000     0.0661349  
C160     C      0.317160000000     0.193320000000     0.487410000000     0.0806237  
C161     C      0.359000000000     0.807100000000     0.507270000000    -0.14215    
C162     C      0.118520000000     0.672680000000     0.494350000000     0.105824   
C163     C      0.170640000000     0.621650000000     0.500190000000     0.114779   
C164     C      0.148360000000     0.703780000000     0.494090000000    -0.11519    
C165     C      0.220880000000     0.759880000000     0.471670000000    -0.0337183  
C166     C      0.251660000000     0.790120000000     0.472640000000    -0.0309419  
C167     C      0.222370000000     0.726180000000     0.498870000000    -0.0107976  
C168     C      0.201210000000     0.651970000000     0.500310000000    -0.117952   
C169     C      0.284470000000     0.787370000000     0.500970000000    -0.0141027  
C170     C      0.309170000000     0.860560000000     0.496140000000    -0.114743   
C171     C      0.285500000000     0.753940000000     0.528570000000    -0.0306646  
C172     C      0.341050000000     0.889460000000     0.496960000000     0.108407   
C173     C      0.390550000000     0.836590000000     0.508280000000     0.202749   
C174     C      0.254900000000     0.723660000000     0.527440000000    -0.0335874  
C175     C      0.190240000000     0.693600000000     0.497540000000     0.0651773  
C176     C      0.317900000000     0.818800000000     0.501460000000     0.0783061  
C177     C      0.858200000000     0.499550000000     0.305420000000    -0.149768   
C178     C      0.620260000000     0.493570000000     0.170600000000     0.119383   
C179     C      0.672520000000     0.497040000000     0.119370000000     0.108461   
C180     C      0.649910000000     0.490890000000     0.201490000000    -0.122259   
C181     C      0.717920000000     0.513560000000     0.260410000000    -0.0333483  
C182     C      0.748080000000     0.513390000000     0.291040000000    -0.0306848  
C183     C      0.723570000000     0.490810000000     0.223940000000    -0.0119635  
C184     C      0.703060000000     0.494630000000     0.149600000000    -0.117634   
C185     C      0.784560000000     0.490700000000     0.285640000000    -0.0167529  
C186     C      0.808020000000     0.488540000000     0.358830000000    -0.122632   
C187     C      0.790150000000     0.467650000000     0.249420000000    -0.0310223  
C188     C      0.839340000000     0.491600000000     0.388020000000     0.11478    
C189     C      0.889170000000     0.502990000000     0.335200000000     0.210376   
C190     C      0.759860000000     0.467620000000     0.218840000000    -0.0336929  
C191     C      0.691830000000     0.491810000000     0.191210000000     0.0676196  
C192     C      0.817390000000     0.492450000000     0.317090000000     0.0830271  
C193     C      0.359090000000     0.483670000000     0.203810000000    -0.149591   
C194     C      0.118990000000     0.480790000000     0.340600000000     0.111354   
C195     C      0.171430000000     0.484820000000     0.391360000000     0.110545   
C196     C      0.148630000000     0.476720000000     0.309480000000    -0.119187   
C197     C      0.216520000000     0.495450000000     0.247870000000    -0.0352551  
C198     C      0.246950000000     0.494860000000     0.217160000000    -0.0312931  
C199     C      0.222870000000     0.475480000000     0.285950000000    -0.0109807  
C200     C      0.201940000000     0.481030000000     0.360910000000    -0.117819   
C201     C      0.284730000000     0.474510000000     0.223710000000    -0.0175472  
C202     C      0.309640000000     0.472630000000     0.149990000000    -0.127256   
C203     C      0.290920000000     0.454030000000     0.261480000000    -0.0311511  
C204     C      0.341340000000     0.476600000000     0.120890000000     0.112408   
C205     C      0.390390000000     0.488050000000     0.174170000000     0.208066   
C206     C      0.260400000000     0.454430000000     0.292140000000    -0.0348575  
C207     C      0.190820000000     0.477420000000     0.319200000000     0.0636877  
C208     C      0.318230000000     0.476350000000     0.192070000000     0.0798104  
C209     C      0.201170000000     0.488780000000     0.653960000000    -0.149915   
C210     C      0.336370000000     0.490890000000     0.892110000000     0.117071   
C211     C      0.387500000000     0.489570000000     0.839670000000     0.108808   
C212     C      0.305120000000     0.489680000000     0.862610000000    -0.121024   
C213     C      0.246490000000     0.466100000000     0.793480000000    -0.0346196  
C214     C      0.215750000000     0.467150000000     0.763300000000    -0.0310759  
C215     C      0.282580000000     0.489760000000     0.788900000000    -0.0117676  
C216     C      0.357010000000     0.488290000000     0.809370000000    -0.117399   
C217     C      0.220700000000     0.491760000000     0.728030000000    -0.0174502  
C218     C      0.147270000000     0.494970000000     0.704410000000    -0.122006   
C219     C      0.256530000000     0.515750000000     0.723720000000    -0.0310125  
C220     C      0.118370000000     0.496210000000     0.672600000000     0.104738   
C221     C      0.171750000000     0.489680000000     0.622500000000     0.210103   
C222     C      0.287140000000     0.514800000000     0.753870000000    -0.034189   
C223     C      0.315290000000     0.488860000000     0.820700000000     0.0668447  
C224     C      0.189180000000     0.491830000000     0.695130000000     0.0811611  
C225     C      0.805980000000     0.503850000000     0.649590000000    -0.138815   
C226     C      0.669230000000     0.517670000000     0.889970000000     0.0973193  
C227     C      0.617890000000     0.511390000000     0.838330000000     0.0968457  
C228     C      0.700220000000     0.519070000000     0.859920000000    -0.108874   
C229     C      0.761350000000     0.496770000000     0.792560000000    -0.0349751  
C230     C      0.791960000000     0.496250000000     0.762020000000    -0.0316205  
C231     C      0.723030000000     0.516140000000     0.785500000000    -0.00882746 
C232     C      0.648180000000     0.512430000000     0.807470000000    -0.10863    
C233     C      0.785050000000     0.514790000000     0.723430000000    -0.0141273  
C234     C      0.858890000000     0.518630000000     0.699110000000    -0.114307   
C235     C      0.746920000000     0.534360000000     0.716380000000    -0.0315734  
C236     C      0.888370000000     0.515910000000     0.667660000000     0.0985361  
C237     C      0.836090000000     0.500680000000     0.618580000000     0.201399   
C238     C      0.716390000000     0.535140000000     0.747010000000    -0.0344675  
C239     C      0.690090000000     0.516060000000     0.817960000000     0.0584768  
C240     C      0.817050000000     0.512810000000     0.690290000000     0.0749845  
C241     C      0.803510000000     0.862900000000     0.000470000000    -0.158517   
C242     C      0.666870000000     0.622550000000     0.997120000000     0.0999452  
C243     C      0.614800000000     0.673740000000     0.999960000000     0.103913   
C244     C      0.697600000000     0.652800000000     0.996230000000    -0.107633   
C245     C      0.755450000000     0.723060000000     0.973530000000    -0.0358381  
C246     C      0.786300000000     0.753340000000     0.974310000000    -0.0302069  
C247     C      0.719520000000     0.727170000000     0.997700000000     0.000452685
C248     C      0.644820000000     0.704830000000     0.999130000000    -0.107359   
C249     C      0.782000000000     0.788580000000     0.999190000000    -0.00836135 
C250     C      0.856450000000     0.811400000000     0.999680000000    -0.105871   
C251     C      0.746130000000     0.792640000000     0.023410000000    -0.0372725  
C252     C      0.886210000000     0.842650000000     0.000950000000     0.0936235  
C253     C      0.833760000000     0.893820000000     0.001710000000     0.202023   
C254     C      0.715340000000     0.762380000000     0.022660000000    -0.0428575  
C255     C      0.686910000000     0.694600000000     0.997470000000     0.0587397  
C256     C      0.814460000000     0.821280000000     0.999670000000     0.0855646  
C257     C      0.809710000000     0.157570000000     0.008580000000    -0.146462   
C258     C      0.676440000000     0.396450000000     0.011080000000     0.105001   
C259     C      0.626280000000     0.343210000000     0.008270000000     0.112898   
C260     C      0.708120000000     0.367430000000     0.013170000000    -0.118867   
C261     C      0.767860000000     0.298670000000     0.991090000000    -0.0257535  
C262     C      0.798070000000     0.267990000000     0.991170000000    -0.0221784  
C263     C      0.731720000000     0.294030000000     0.014670000000    -0.0200736  
C264     C      0.657170000000     0.313410000000     0.010330000000    -0.121687   
C265     C      0.792630000000     0.232120000000     0.014800000000    -0.0250401  
C266     C      0.865350000000     0.206160000000     0.013500000000    -0.126266   
C267     C      0.757020000000     0.228000000000     0.039210000000    -0.0297137  
C268     C      0.893300000000     0.173650000000     0.010880000000     0.118635   
C269     C      0.838220000000     0.125380000000     0.005710000000     0.199871   
C270     C      0.726870000000     0.258650000000     0.039160000000    -0.0331371  
C271     C      0.698620000000     0.325390000000     0.012860000000     0.0670645  
C272     C      0.823060000000     0.198220000000     0.012650000000     0.0833216  
C273     C      0.197210000000     0.852360000000     0.034370000000    -0.145567   
C274     C      0.333210000000     0.614630000000     0.016340000000     0.112813   
C275     C      0.383130000000     0.668020000000     0.020280000000     0.10057    
C276     C      0.301290000000     0.643310000000     0.019710000000    -0.122329   
C277     C      0.243230000000     0.714630000000     0.999680000000    -0.0035534  
C278     C      0.212840000000     0.745120000000     0.001030000000    -0.0610757  
C279     C      0.277180000000     0.716220000000     0.026610000000    -0.0298961  
C280     C      0.351980000000     0.697450000000     0.024080000000    -0.115727   
C281     C      0.215670000000     0.777680000000     0.029520000000    -0.00399446 
C282     C      0.142910000000     0.803290000000     0.023110000000    -0.119926   
C283     C      0.249110000000     0.778560000000     0.057200000000    -0.0403718  
C284     C      0.114720000000     0.835690000000     0.021120000000     0.109676   
C285     C      0.168380000000     0.884390000000     0.032680000000     0.208664   
C286     C      0.279640000000     0.748240000000     0.055640000000    -0.0245786  
C287     C      0.310550000000     0.685220000000     0.023660000000     0.0699101  
C288     C      0.184790000000     0.811460000000     0.029200000000     0.07496    
C289     C      0.363470000000     0.303600000000     0.023550000000    -0.149045   
C290     C      0.121670000000     0.168320000000     0.024830000000     0.107688   
C291     C      0.172660000000     0.116000000000     0.025430000000     0.108141   
C292     C      0.152130000000     0.198760000000     0.028050000000    -0.114467   
C293     C      0.223270000000     0.255120000000     0.054940000000    -0.0364609  
C294     C      0.254010000000     0.285580000000     0.054760000000    -0.0317738  
C295     C      0.226900000000     0.219880000000     0.029880000000    -0.00825603 
C296     C      0.203940000000     0.145690000000     0.028260000000    -0.117048   
C297     C      0.289060000000     0.281740000000     0.029290000000    -0.0152513  
C298     C      0.312180000000     0.356120000000     0.031600000000    -0.126562   
C299     C      0.292420000000     0.246510000000     0.004110000000    -0.0383597  
C300     C      0.343280000000     0.385950000000     0.028750000000     0.111739   
C301     C      0.394170000000     0.333960000000     0.020230000000     0.206784   
C302     C      0.261920000000     0.215970000000     0.004560000000    -0.042659   
C303     C      0.193930000000     0.187720000000     0.029210000000     0.060787   
C304     C      0.321920000000     0.314250000000     0.028550000000     0.0775616  
C305     C      0.859470000000     0.996020000000     0.807450000000    -0.144702   
C306     C      0.618240000000     0.010340000000     0.674690000000     0.100893   
C307     C      0.670280000000     0.005980000000     0.623410000000     0.115877   
C308     C      0.648090000000     0.009210000000     0.705780000000    -0.106638   
C309     C      0.720400000000     0.029610000000     0.762600000000    -0.0349075  
C310     C      0.751370000000     0.028020000000     0.792600000000    -0.0231589  
C311     C      0.722140000000     0.003740000000     0.727870000000    -0.0140887  
C312     C      0.700860000000     0.004630000000     0.653670000000    -0.113759   
C313     C      0.784630000000     0.000450000000     0.788540000000    -0.0345569  
C314     C      0.809570000000     0.002560000000     0.861660000000    -0.127042   
C315     C      0.785960000000     0.974150000000     0.754110000000    -0.0166606  
C316     C      0.841660000000     0.002340000000     0.890320000000     0.106037   
C317     C      0.891280000000     0.995700000000     0.836710000000     0.204511   
C318     C      0.755100000000     0.975820000000     0.724100000000    -0.0277932  
C319     C      0.689940000000     0.006040000000     0.695410000000     0.0645812  
C320     C      0.818270000000     0.999630000000     0.819660000000     0.101021   
C321     C      0.308590000000     0.989990000000     0.652140000000    -0.140787   
C322     C      0.174690000000     0.007930000000     0.892580000000     0.108622   
C323     C      0.124340000000     0.996530000000     0.840680000000     0.107645   
C324     C      0.206140000000     0.007050000000     0.863050000000    -0.106503   
C325     C      0.261040000000     0.028390000000     0.789210000000    -0.0467173  
C326     C      0.290840000000     0.027950000000     0.758010000000    -0.0330711  
C327     C      0.229110000000     0.999070000000     0.789530000000     0.0140253  
C328     C      0.154950000000     0.995220000000     0.810490000000    -0.0925627  
C329     C      0.289420000000     0.998060000000     0.726600000000    -0.00896812 
C330     C      0.361890000000     0.006300000000     0.700810000000    -0.118947   
C331     C      0.257880000000     0.968290000000     0.727460000000    -0.0261308  
C332     C      0.390440000000     0.006330000000     0.668670000000     0.100989   
C333     C      0.337850000000     0.989870000000     0.620300000000     0.207665   
C334     C      0.228030000000     0.968850000000     0.758510000000    -0.0399357  
C335     C      0.196390000000     0.000480000000     0.821480000000     0.0416543  
C336     C      0.320380000000     0.998170000000     0.692780000000     0.0871555  
C337     C      0.150380000000     0.021990000000     0.203110000000    -0.148783   
C338     C      0.390850000000     0.015660000000     0.337070000000     0.111659   
C339     C      0.337990000000     0.010420000000     0.387370000000     0.104226   
C340     C      0.361400000000     0.019630000000     0.305810000000    -0.115901   
C341     C      0.292390000000     0.003570000000     0.244360000000    -0.0420588  
C342     C      0.261670000000     0.006140000000     0.214160000000    -0.0373448  
C343     C      0.287330000000     0.023210000000     0.282720000000    -0.00725686 
C344     C      0.307750000000     0.014210000000     0.356900000000    -0.109947   
C345     C      0.225110000000     0.028280000000     0.221660000000    -0.0150679  
C346     C      0.199430000000     0.032900000000     0.148800000000    -0.125894   
C347     C      0.220370000000     0.048590000000     0.259660000000    -0.0307905  
C348     C      0.167350000000     0.030190000000     0.120180000000     0.120817   
C349     C      0.118660000000     0.018900000000     0.173880000000     0.20767    
C350     C      0.251150000000     0.046160000000     0.289800000000    -0.0354337  
C351     C      0.319230000000     0.019110000000     0.315510000000     0.0613303  
C352     C      0.191200000000     0.028390000000     0.190790000000     0.0808892  
C353     C      0.701930000000     0.019770000000     0.358530000000    -0.151634   
C354     C      0.833650000000     0.019640000000     0.116310000000     0.10538    
C355     C      0.884810000000     0.019850000000     0.168640000000     0.115518   
C356     C      0.802410000000     0.022270000000     0.146010000000    -0.109976   
C357     C      0.747040000000     0.051140000000     0.218190000000    -0.0342493  
C358     C      0.717460000000     0.052280000000     0.249710000000    -0.0281579  
C359     C      0.780270000000     0.023350000000     0.220210000000    -0.0163168  
C360     C      0.854430000000     0.021930000000     0.199060000000    -0.115022   
C361     C      0.720360000000     0.025360000000     0.283650000000    -0.0251253  
C362     C      0.647610000000     0.032870000000     0.310030000000    -0.127554   
C363     C      0.753160000000     0.996910000000     0.284900000000    -0.0201819  
C364     C      0.619130000000     0.031040000000     0.342330000000     0.120556   
C365     C      0.672840000000     0.017250000000     0.390360000000     0.211674   
C366     C      0.782850000000     0.996120000000     0.253740000000    -0.0263565  
C367     C      0.812690000000     0.022830000000     0.187930000000     0.0654083  
C368     C      0.689570000000     0.026590000000     0.317790000000     0.0849258  
C369     C      0.026360000000     0.149060000000     0.804260000000    -0.145234   
C370     C      0.013290000000     0.389340000000     0.672200000000     0.101524   
C371     C      0.016570000000     0.337840000000     0.620320000000     0.113077   
C372     C      0.015880000000     0.359430000000     0.702920000000    -0.115176   
C373     C      0.993760000000     0.287330000000     0.758200000000    -0.0260091  
C374     C      0.994650000000     0.256490000000     0.788130000000    -0.021697   
C375     C      0.020620000000     0.285670000000     0.724230000000    -0.0191899  
C376     C      0.019430000000     0.307160000000     0.650270000000    -0.119791   
C377     C      0.022530000000     0.223480000000     0.784750000000    -0.0250603  
C378     C      0.018560000000     0.199480000000     0.857810000000    -0.128701   
C379     C      0.049720000000     0.222080000000     0.750970000000    -0.0292266  
C380     C      0.017270000000     0.167830000000     0.886690000000     0.119504   
C381     C      0.025290000000     0.117680000000     0.833820000000     0.203501   
C382     C      0.048690000000     0.252850000000     0.720930000000    -0.03314    
C383     C      0.018860000000     0.317840000000     0.692060000000     0.0667062  
C384     C      0.022650000000     0.190260000000     0.816030000000     0.0840174  
C385     C      0.997810000000     0.804200000000     0.862600000000    -0.141025   
C386     C      0.997410000000     0.669580000000     0.619330000000     0.0971617  
C387     C      0.997310000000     0.617890000000     0.670870000000     0.0930385  
C388     C      0.996690000000     0.700440000000     0.649600000000    -0.104371   
C389     C      0.020560000000     0.758220000000     0.720180000000    -0.0436412  
C390     C      0.021250000000     0.788280000000     0.751260000000    -0.036987   
C391     C      0.996360000000     0.722420000000     0.724390000000     0.00143884 
C392     C      0.996370000000     0.647960000000     0.701880000000    -0.103204   
C393     C      0.997630000000     0.783530000000     0.787460000000    -0.00753218 
C394     C      0.001240000000     0.857400000000     0.811620000000    -0.120652   
C395     C      0.973180000000     0.747850000000     0.791490000000    -0.0301254  
C396     C      0.002640000000     0.886720000000     0.843210000000     0.100273   
C397     C      0.999200000000     0.834170000000     0.893960000000     0.207348   
C398     C      0.972610000000     0.717730000000     0.760460000000    -0.0362853  
C399     C      0.996320000000     0.689930000000     0.691570000000     0.0559588  
C400     C      0.998740000000     0.815430000000     0.820920000000     0.0842815  
C401     C      0.993880000000     0.859850000000     0.205300000000    -0.138125   
C402     C      0.012450000000     0.620750000000     0.338880000000     0.115267   
C403     C      0.006300000000     0.672250000000     0.390530000000     0.106843   
C404     C      0.012870000000     0.650800000000     0.308150000000    -0.119755   
C405     C      0.038080000000     0.725430000000     0.255670000000    -0.0326502  
C406     C      0.037280000000     0.756430000000     0.225850000000    -0.0307278  
C407     C      0.008170000000     0.724550000000     0.286970000000    -0.020237   
C408     C      0.006090000000     0.702990000000     0.360590000000    -0.119062   
C409     C      0.006240000000     0.786760000000     0.226570000000    -0.0220454  
C410     C      0.014350000000     0.810790000000     0.153770000000    -0.122099   
C411     C      0.976050000000     0.785400000000     0.257730000000    -0.0236257  
C412     C      0.012560000000     0.841870000000     0.124290000000     0.110886   
C413     C      0.991550000000     0.890450000000     0.175050000000     0.216784   
C414     C      0.977180000000     0.754730000000     0.287780000000    -0.0245076  
C415     C      0.009260000000     0.692330000000     0.318970000000     0.0684196  
C416     C      0.005160000000     0.819620000000     0.194860000000     0.0745193  
C417     C      0.023530000000     0.205030000000     0.148870000000    -0.147536   
C418     C      0.028380000000     0.339040000000     0.391050000000     0.109143   
C419     C      0.025310000000     0.390400000000     0.339260000000     0.11049    
C420     C      0.031650000000     0.308210000000     0.361010000000    -0.118657   
C421     C      0.010850000000     0.248300000000     0.292090000000    -0.0419739  
C422     C      0.010530000000     0.218150000000     0.261170000000    -0.0388576  
C423     C      0.032100000000     0.285750000000     0.286440000000    -0.00901207 
C424     C      0.028400000000     0.360330000000     0.308420000000    -0.117269   
C425     C      0.031300000000     0.224600000000     0.223600000000    -0.0142141  
C426     C      0.031480000000     0.151070000000     0.198620000000    -0.12292    
C427     C      0.052950000000     0.261810000000     0.218070000000    -0.0322451  
C428     C      0.027590000000     0.122120000000     0.166920000000     0.110873   
C429     C      0.019330000000     0.175440000000     0.117480000000     0.206247   
C430     C      0.053400000000     0.291920000000     0.249070000000    -0.0353601  
C431     C      0.031090000000     0.318480000000     0.318980000000     0.0617268  
C432     C      0.029270000000     0.193170000000     0.189930000000     0.0767435  
H1       H      0.973860000000     0.977410000000     0.036390000000    -1.24956    
H2       H      0.029400000000     0.029840000000     0.029650000000    -1.05756    
H3       H      0.970110000000     0.074370000000     0.964970000000    -0.497718   
H4       H      0.074620000000     0.964450000000     0.971730000000    -0.513708   
H5       H      0.975490000000     0.533480000000     0.473560000000    -1.25992    
H6       H      0.029610000000     0.479740000000     0.480440000000    -1.08473    
H7       H      0.966790000000     0.433980000000     0.541070000000    -0.498563   
H8       H      0.073820000000     0.541910000000     0.542590000000    -0.545369   
H9       H      0.476210000000     0.975880000000     0.473520000000    -1.24689    
H10      H      0.529450000000     0.030390000000     0.481420000000    -1.08674    
H11      H      0.574530000000     0.967760000000     0.542300000000    -0.530705   
H12      H      0.465810000000     0.073800000000     0.542680000000    -0.534612   
H13      H      0.534460000000     0.475420000000     0.975470000000    -1.26623    
H14      H      0.480660000000     0.479610000000     0.030130000000    -1.10817    
H15      H      0.432720000000     0.539550000000     0.968940000000    -0.521093   
H16      H      0.541160000000     0.543080000000     0.074670000000    -0.568635   
H17      H      0.490880000000     0.421310000000     0.180700000000     0.0305136  
H18      H      0.526540000000     0.090240000000     0.333170000000     0.0155916  
H19      H      0.453930000000     0.310310000000     0.261460000000     0.0389899  
H20      H      0.557550000000     0.198590000000     0.246590000000     0.0358957  
H21      H      0.523430000000     0.140530000000     0.278600000000     0.0597703  
H22      H      0.551490000000     0.250910000000     0.192780000000     0.037774   
H23      H      0.504710000000     0.236260000000     0.368170000000     0.0812234  
H24      H      0.493300000000     0.368470000000     0.233430000000     0.0608885  
H25      H      0.504480000000     0.275850000000     0.138710000000     0.0608455  
H26      H      0.459520000000     0.257880000000     0.314890000000     0.0392874  
H27      H      0.502450000000     0.329360000000     0.086770000000     0.0276106  
H28      H      0.494810000000     0.682220000000     0.088850000000     0.0181398  
H29      H      0.501160000000     0.830440000000     0.420570000000     0.0274079  
H30      H      0.453770000000     0.765800000000     0.194680000000     0.0381649  
H31      H      0.543170000000     0.743290000000     0.317020000000     0.038717   
H32      H      0.496840000000     0.777050000000     0.369450000000     0.0637645  
H33      H      0.538800000000     0.689990000000     0.264210000000     0.0390233  
H34      H      0.515390000000     0.866660000000     0.273690000000     0.083118   
H35      H      0.495180000000     0.734750000000     0.141610000000     0.0574098  
H36      H      0.492460000000     0.639960000000     0.235020000000     0.0616395  
H37      H      0.458960000000     0.819420000000     0.247220000000     0.0395423  
H38      H      0.493550000000     0.588100000000     0.181580000000     0.0259568  
H39      H      0.499470000000     0.680430000000     0.921000000000     0.0229244  
H40      H      0.511360000000     0.830180000000     0.585690000000     0.0342467  
H41      H      0.543490000000     0.764820000000     0.817280000000     0.0399307  
H42      H      0.468830000000     0.738210000000     0.686270000000     0.0400455  
H43      H      0.513050000000     0.775490000000     0.636140000000     0.0622712  
H44      H      0.469050000000     0.685610000000     0.740120000000     0.0383321  
H45      H      0.492870000000     0.863820000000     0.732640000000     0.0831492  
H46      H      0.500020000000     0.732400000000     0.867360000000     0.0576684  
H47      H      0.511280000000     0.636660000000     0.775720000000     0.0557036  
H48      H      0.542870000000     0.817400000000     0.763670000000     0.0420587  
H49      H      0.509650000000     0.585490000000     0.829820000000     0.0206625  
H50      H      0.507020000000     0.329610000000     0.920640000000     0.0230793  
H51      H      0.511970000000     0.178670000000     0.590010000000     0.0167071  
H52      H      0.555710000000     0.250970000000     0.815400000000     0.0393846  
H53      H      0.464710000000     0.262280000000     0.692690000000     0.0380252  
H54      H      0.513540000000     0.233060000000     0.640150000000     0.0625786  
H55      H      0.462440000000     0.315870000000     0.745420000000     0.0383113  
H56      H      0.508680000000     0.143770000000     0.737800000000     0.0834698  
H57      H      0.508640000000     0.276740000000     0.868130000000     0.0627406  
H58      H      0.504670000000     0.370860000000     0.774140000000     0.05791    
H59      H      0.557600000000     0.197230000000     0.762840000000     0.0405411  
H60      H      0.502060000000     0.423020000000     0.827220000000     0.0171614  
H61      H      0.918350000000     0.327600000000     0.499280000000     0.0123801  
H62      H      0.585870000000     0.176170000000     0.471030000000     0.0319211  
H63      H      0.818300000000     0.242660000000     0.447880000000     0.0387709  
H64      H      0.682230000000     0.271870000000     0.512030000000     0.0393205  
H65      H      0.636250000000     0.230680000000     0.463370000000     0.0641133  
H66      H      0.735910000000     0.324490000000     0.513610000000     0.0415885  
H67      H      0.731580000000     0.148340000000     0.504480000000     0.0850249  
H68      H      0.864810000000     0.275770000000     0.493840000000     0.0591545  
H69      H      0.774730000000     0.371850000000     0.474020000000     0.0619726  
H70      H      0.764790000000     0.189720000000     0.447460000000     0.0406479  
H71      H      0.828550000000     0.422780000000     0.480960000000     0.0337085  
H72      H      0.590360000000     0.829080000000     0.490070000000     0.0228081  
H73      H      0.921480000000     0.676550000000     0.519920000000     0.020819   
H74      H      0.690010000000     0.744710000000     0.539340000000     0.0392959  
H75      H      0.824900000000     0.767220000000     0.470240000000     0.0387758  
H76      H      0.871050000000     0.731130000000     0.520730000000     0.0604403  
H77      H      0.771990000000     0.820660000000     0.466510000000     0.0411819  
H78      H      0.775540000000     0.643850000000     0.492210000000     0.0827032  
H79      H      0.643270000000     0.776470000000     0.491400000000     0.059621   
H80      H      0.735890000000     0.870800000000     0.507350000000     0.0636759  
H81      H      0.742690000000     0.691160000000     0.542440000000     0.0408227  
H82      H      0.682440000000     0.922720000000     0.504940000000     0.030422   
H83      H      0.087900000000     0.330100000000     0.485050000000     0.0139471  
H84      H      0.419910000000     0.179270000000     0.497090000000     0.0264986  
H85      H      0.195200000000     0.249560000000     0.436050000000     0.0373232  
H86      H      0.315730000000     0.266750000000     0.529050000000     0.0382587  
H87      H      0.370220000000     0.233660000000     0.490120000000     0.0640065  
H88      H      0.263230000000     0.320480000000     0.526070000000     0.0405864  
H89      H      0.272370000000     0.144350000000     0.486390000000     0.0822409  
H90      H      0.141130000000     0.277870000000     0.480900000000     0.0577224  
H91      H      0.233980000000     0.373200000000     0.480290000000     0.0614525  
H92      H      0.247910000000     0.195870000000     0.438760000000     0.0390004  
H93      H      0.180180000000     0.424740000000     0.484740000000     0.0283371  
H94      H      0.180650000000     0.589860000000     0.502610000000     0.0188014  
H95      H      0.332260000000     0.921240000000     0.491700000000     0.0374215  
H96      H      0.256460000000     0.698450000000     0.549310000000     0.0395514  
H97      H      0.250200000000     0.815170000000     0.450620000000     0.0388244  
H98      H      0.277740000000     0.871110000000     0.491670000000     0.0660185  
H99      H      0.196370000000     0.762440000000     0.449060000000     0.0387547  
H100     H      0.366760000000     0.774800000000     0.510780000000     0.0812988  
H101     H      0.233320000000     0.642770000000     0.502400000000     0.0606715  
H102     H      0.138580000000     0.735640000000     0.492110000000     0.0582819  
H103     H      0.309830000000     0.751300000000     0.551360000000     0.0409124  
H104     H      0.086450000000     0.682020000000     0.492060000000     0.0172575  
H105     H      0.682490000000     0.499530000000     0.087530000000     0.0154033  
H106     H      0.830260000000     0.487590000000     0.419960000000     0.0340755  
H107     H      0.764740000000     0.449300000000     0.191340000000     0.0378755  
H108     H      0.743370000000     0.531900000000     0.318460000000     0.0407535  
H109     H      0.776640000000     0.482760000000     0.368940000000     0.0652383  
H110     H      0.690580000000     0.532280000000     0.264920000000     0.0388094  
H111     H      0.865820000000     0.503610000000     0.273100000000     0.0831149  
H112     H      0.735220000000     0.495840000000     0.140420000000     0.0579806  
H113     H      0.639950000000     0.487970000000     0.233270000000     0.0604767  
H114     H      0.817900000000     0.449560000000     0.244810000000     0.0395916  
H115     H      0.588160000000     0.492850000000     0.180120000000     0.015399   
H116     H      0.181620000000     0.488130000000     0.423050000000     0.0189032  
H117     H      0.332600000000     0.473250000000     0.088790000000     0.0134101  
H118     H      0.266200000000     0.438050000000     0.320660000000     0.0375455  
H119     H      0.241350000000     0.511490000000     0.188730000000     0.0356423  
H120     H      0.278480000000     0.466550000000     0.139430000000     0.057465   
H121     H      0.188410000000     0.512590000000     0.242090000000     0.036739   
H122     H      0.366540000000     0.487620000000     0.236170000000     0.0814345  
H123     H      0.234090000000     0.482070000000     0.370070000000     0.0585611  
H124     H      0.138340000000     0.473010000000     0.277910000000     0.0568674  
H125     H      0.319430000000     0.437570000000     0.267360000000     0.0380448  
H126     H      0.086840000000     0.480360000000     0.331260000000     0.0176086  
H127     H      0.419410000000     0.489400000000     0.829500000000     0.0168573  
H128     H      0.086290000000     0.499420000000     0.681650000000     0.017363   
H129     H      0.314210000000     0.534040000000     0.749940000000     0.0380594  
H130     H      0.188560000000     0.448060000000     0.767100000000     0.0368602  
H131     H      0.136850000000     0.497380000000     0.736090000000     0.0589563  
H132     H      0.242330000000     0.446240000000     0.820010000000     0.03774    
H133     H      0.233540000000     0.485040000000     0.646250000000     0.0822742  
H134     H      0.366130000000     0.486890000000     0.777240000000     0.0581388  
H135     H      0.273200000000     0.490460000000     0.872630000000     0.058492   
H136     H      0.260760000000     0.535510000000     0.697100000000     0.0392407  
H137     H      0.327030000000     0.492090000000     0.924210000000     0.0115825  
H138     H      0.586030000000     0.508120000000     0.828570000000     0.0188737  
H139     H      0.920210000000     0.521570000000     0.676390000000     0.0213402  
H140     H      0.687690000000     0.551030000000     0.740570000000     0.0383078  
H141     H      0.820720000000     0.480380000000     0.768300000000     0.037763   
H142     H      0.868920000000     0.525870000000     0.730160000000     0.0581683  
H143     H      0.767480000000     0.481150000000     0.821430000000     0.0376765  
H144     H      0.773910000000     0.497810000000     0.642100000000     0.0820174  
H145     H      0.638670000000     0.509490000000     0.775580000000     0.0558617  
H146     H      0.731990000000     0.522790000000     0.869700000000     0.0557498  
H147     H      0.740760000000     0.549440000000     0.687200000000     0.0406648  
H148     H      0.678860000000     0.520010000000     0.921920000000     0.0208699  
H149     H      0.582710000000     0.683200000000     0.001350000000     0.0130401  
H150     H      0.918180000000     0.832780000000     0.001230000000     0.0358162  
H151     H      0.688530000000     0.766270000000     0.042280000000     0.0393735  
H152     H      0.813210000000     0.749450000000     0.954840000000     0.0397421  
H153     H      0.866480000000     0.779550000000     0.999460000000     0.0632447  
H154     H      0.759530000000     0.696660000000     0.953500000000     0.0392118  
H155     H      0.771170000000     0.871540000000     0.999860000000     0.0935138  
H156     H      0.634980000000     0.736730000000     0.999520000000     0.0600281  
H157     H      0.729660000000     0.643280000000     0.995430000000     0.0572361  
H158     H      0.742070000000     0.819000000000     0.043500000000     0.0408599  
H159     H      0.676960000000     0.590700000000     0.996400000000     0.0229035  
H160     H      0.594620000000     0.332480000000     0.006250000000     0.0126607  
H161     H      0.925750000000     0.181730000000     0.012090000000     0.027092   
H162     H      0.699700000000     0.254620000000     0.058240000000     0.0374607  
H163     H      0.825020000000     0.271750000000     0.971730000000     0.0388399  
H164     H      0.876900000000     0.237340000000     0.016680000000     0.0640367  
H165     H      0.772210000000     0.325430000000     0.971580000000     0.0381885  
H166     H      0.776950000000     0.150870000000     0.006580000000     0.080692   
H167     H      0.648590000000     0.281150000000     0.009360000000     0.0586903  
H168     H      0.739800000000     0.377920000000     0.015510000000     0.0560997  
H169     H      0.752400000000     0.200940000000     0.058250000000     0.0387958  
H170     H      0.685200000000     0.428690000000     0.011650000000     0.0162285  
H171     H      0.414790000000     0.678930000000     0.020610000000     0.0181045  
H172     H      0.082750000000     0.827430000000     0.015530000000     0.0260177  
H173     H      0.305170000000     0.749810000000     0.077190000000     0.0359026  
H174     H      0.187780000000     0.743830000000     0.978920000000     0.0515297  
H175     H      0.131820000000     0.771970000000     0.019790000000     0.0597642  
H176     H      0.240820000000     0.690490000000     0.976720000000     0.0332794  
H177     H      0.229500000000     0.859610000000     0.039410000000     0.0811059  
H178     H      0.360340000000     0.729680000000     0.026660000000     0.0582798  
H179     H      0.269570000000     0.632670000000     0.019590000000     0.0563215  
H180     H      0.251780000000     0.802750000000     0.080070000000     0.0418579  
H181     H      0.324620000000     0.582470000000     0.013420000000     0.00970694 
H182     H      0.182030000000     0.083950000000     0.024430000000     0.0174153  
H183     H      0.333500000000     0.417810000000     0.031070000000     0.013044   
H184     H      0.265340000000     0.189650000000     0.984290000000     0.0465694  
H185     H      0.250500000000     0.311910000000     0.074980000000     0.035185   
H186     H      0.280460000000     0.366110000000     0.035170000000     0.0567827  
H187     H      0.196850000000     0.258920000000     0.075090000000     0.0378018  
H188     H      0.372280000000     0.271430000000     0.021870000000     0.0797072  
H189     H      0.235840000000     0.135690000000     0.029650000000     0.0565968  
H190     H      0.142920000000     0.230850000000     0.028360000000     0.0589275  
H191     H      0.318330000000     0.242750000000     0.983320000000     0.047137   
H192     H      0.089890000000     0.178560000000     0.023060000000     0.0314247  
H193     H      0.680240000000     0.004100000000     0.591570000000     0.0304389  
H194     H      0.832680000000     0.005010000000     0.922400000000     0.0471178  
H195     H      0.756870000000     0.954960000000     0.698060000000     0.041955   
H196     H      0.749720000000     0.049040000000     0.818510000000     0.0395519  
H197     H      0.778010000000     0.004760000000     0.872560000000     0.0707147  
H198     H      0.695600000000     0.051740000000     0.766120000000     0.0421693  
H199     H      0.867080000000     0.993860000000     0.774950000000     0.0876478  
H200     H      0.732940000000     0.002640000000     0.644310000000     0.0626687  
H201     H      0.638320000000     0.010000000000     0.737730000000     0.0633031  
H202     H      0.810750000000     0.952020000000     0.750460000000     0.039467   
H203     H      0.586200000000     0.012320000000     0.684140000000     0.0417473  
H204     H      0.092780000000     0.991630000000     0.830720000000     0.0401125  
H205     H      0.422000000000     0.013700000000     0.676980000000     0.0482111  
H206     H      0.204180000000     0.945430000000     0.758370000000     0.0435736  
H207     H      0.314440000000     0.051610000000     0.757980000000     0.0403868  
H208     H      0.372520000000     0.012360000000     0.731920000000     0.0685243  
H209     H      0.262390000000     0.052300000000     0.812480000000     0.0431587  
H210     H      0.276490000000     0.983760000000     0.644980000000     0.0850212  
H211     H      0.146070000000     0.990430000000     0.778620000000     0.0617456  
H212     H      0.237900000000     0.010930000000     0.872810000000     0.0576141  
H213     H      0.256390000000     0.944330000000     0.704240000000     0.0414568  
H214     H      0.183570000000     0.013020000000     0.924420000000     0.0195782  
H215     H      0.327550000000     0.006370000000     0.418870000000     0.0343969  
H216     H      0.175770000000     0.034130000000     0.088060000000     0.0248947  
H217     H      0.246590000000     0.062350000000     0.318660000000     0.0402671  
H218     H      0.265980000000     0.989670000000     0.185410000000     0.0482647  
H219     H      0.230590000000     0.038460000000     0.137960000000     0.0621408  
H220     H      0.319590000000     0.985190000000     0.238040000000     0.046802   
H221     H      0.143320000000     0.017620000000     0.235510000000     0.0818909  
H222     H      0.275530000000     0.012740000000     0.365780000000     0.0612135  
H223     H      0.371740000000     0.023730000000     0.274300000000     0.0578581  
H224     H      0.192790000000     0.066370000000     0.266130000000     0.038486   
H225     H      0.423090000000     0.016630000000     0.328060000000     0.0167403  
H226     H      0.916680000000     0.019710000000     0.178820000000     0.0291729  
H227     H      0.587010000000     0.036020000000     0.334280000000     0.0206793  
H228     H      0.807720000000     0.973850000000     0.255680000000     0.0436938  
H229     H      0.692820000000     0.074780000000     0.247860000000     0.0357963  
H230     H      0.636470000000     0.038060000000     0.278960000000     0.0630272  
H231     H      0.744470000000     0.072620000000     0.192730000000     0.0395175  
H232     H      0.734340000000     0.015460000000     0.365670000000     0.0823207  
H233     H      0.863630000000     0.023030000000     0.231180000000     0.0633808  
H234     H      0.770420000000     0.022830000000     0.136220000000     0.0629565  
H235     H      0.755810000000     0.974880000000     0.309850000000     0.0419153  
H236     H      0.824300000000     0.018560000000     0.084220000000     0.0408832  
H237     H      0.016840000000     0.328180000000     0.588300000000     0.0106292  
H238     H      0.013470000000     0.177130000000     0.918590000000     0.0169989  
H239     H      0.070110000000     0.251170000000     0.695300000000     0.0385889  
H240     H      0.972880000000     0.258070000000     0.813460000000     0.0388977  
H241     H      0.016390000000     0.231100000000     0.868320000000     0.0609929  
H242     H      0.971420000000     0.312010000000     0.761190000000     0.0393425  
H243     H      0.029660000000     0.141130000000     0.771950000000     0.0834442  
H244     H      0.021310000000     0.275220000000     0.640710000000     0.0585168  
H245     H      0.015840000000     0.368890000000     0.734970000000     0.0560221  
H246     H      0.072000000000     0.197370000000     0.747890000000     0.0395452  
H247     H      0.011070000000     0.421190000000     0.682050000000     0.0179661  
H248     H      0.997650000000     0.585930000000     0.680610000000     0.0232543  
H249     H      0.004940000000     0.918570000000     0.833540000000     0.0401788  
H250     H      0.953080000000     0.690940000000     0.764560000000     0.039407   
H251     H      0.041000000000     0.814900000000     0.747200000000     0.039335   
H252     H      0.001700000000     0.867870000000     0.779890000000     0.0651897  
H253     H      0.039760000000     0.762670000000     0.693180000000     0.0391485  
H254     H      0.996850000000     0.771900000000     0.870990000000     0.0821214  
H255     H      0.996520000000     0.638210000000     0.733840000000     0.0563667  
H256     H      0.996060000000     0.732410000000     0.640030000000     0.0582262  
H257     H      0.953970000000     0.743330000000     0.818460000000     0.0401123  
H258     H      0.997700000000     0.679400000000     0.587370000000     0.0228946  
H259     H      0.003680000000     0.681920000000     0.422440000000     0.0161969  
H260     H      0.020790000000     0.833250000000     0.093020000000     0.023114   
H261     H      0.953460000000     0.754260000000     0.311360000000     0.0399959  
H262     H      0.061300000000     0.756930000000     0.202600000000     0.0375871  
H263     H      0.022510000000     0.779880000000     0.144150000000     0.0599659  
H264     H      0.062480000000     0.702600000000     0.254720000000     0.0376101  
H265     H      0.986380000000     0.867540000000     0.236960000000     0.0845382  
H266     H      0.003660000000     0.734950000000     0.370000000000     0.0578964  
H267     H      0.015220000000     0.641540000000     0.276120000000     0.0611586  
H268     H      0.951190000000     0.807710000000     0.258650000000     0.0403151  
H269     H      0.015010000000     0.588870000000     0.329210000000     0.0207956  
H270     H      0.022620000000     0.422220000000     0.329410000000     0.0200341  
H271     H      0.029710000000     0.090040000000     0.175860000000     0.0318284  
H272     H      0.070700000000     0.319990000000     0.243780000000     0.036655   
H273     H      0.992980000000     0.190190000000     0.266300000000     0.0462855  
H274     H      0.036360000000     0.140340000000     0.229890000000     0.062085   
H275     H      0.993460000000     0.242600000000     0.320050000000     0.0456606  
H276     H      0.020720000000     0.237430000000     0.141270000000     0.0793499  
H277     H      0.027480000000     0.369920000000     0.276440000000     0.0578626  
H278     H      0.034590000000     0.276450000000     0.370840000000     0.0551444  
H279     H      0.069790000000     0.267600000000     0.189780000000     0.0373015  
H280     H      0.028580000000     0.329360000000     0.423060000000     0.0139193  
N1       N      0.515990000000     0.133120000000     0.382800000000    -0.276744   
N2       N      0.496500000000     0.379540000000     0.129640000000    -0.265874   
N3       N      0.510080000000     0.880290000000     0.377390000000    -0.266092   
N4       N      0.494650000000     0.631210000000     0.131220000000    -0.249278   
N5       N      0.501280000000     0.879300000000     0.629190000000    -0.235866   
N6       N      0.504290000000     0.628910000000     0.879670000000    -0.227938   
N7       N      0.509370000000     0.128890000000     0.634140000000    -0.259156   
N8       N      0.504600000000     0.380270000000     0.877910000000    -0.25795    
N9       N      0.628990000000     0.130420000000     0.492080000000    -0.274847   
N10      N      0.877510000000     0.379100000000     0.490990000000    -0.252879   
N11      N      0.878400000000     0.627950000000     0.505540000000    -0.246743   
N12      N      0.632310000000     0.879860000000     0.497680000000    -0.253109   
N13      N      0.375940000000     0.129400000000     0.494870000000    -0.262716   
N14      N      0.129960000000     0.381360000000     0.486110000000    -0.264578   
N15      N      0.381610000000     0.878150000000     0.503290000000    -0.245206   
N16      N      0.129540000000     0.631910000000     0.497720000000    -0.255386   
N17      N      0.879750000000     0.498760000000     0.376780000000    -0.266776   
N18      N      0.631440000000     0.496920000000     0.129860000000    -0.260401   
N19      N      0.381580000000     0.484570000000     0.132330000000    -0.275162   
N20      N      0.130210000000     0.485440000000     0.381250000000    -0.266103   
N21      N      0.130120000000     0.494320000000     0.631780000000    -0.260314   
N22      N      0.377250000000     0.491470000000     0.880720000000    -0.258573   
N23      N      0.877510000000     0.507360000000     0.627440000000    -0.238745   
N24      N      0.628300000000     0.513520000000     0.879390000000    -0.234265   
N25      N      0.875530000000     0.883780000000     0.002020000000    -0.242388   
N26      N      0.625700000000     0.632820000000     0.999310000000    -0.225412   
N27      N      0.880310000000     0.133360000000     0.007450000000    -0.26389    
N28      N      0.635800000000     0.384440000000     0.008670000000    -0.257907   
N29      N      0.127100000000     0.876130000000     0.024760000000    -0.264389   
N30      N      0.373840000000     0.626900000000     0.016410000000    -0.248716   
N31      N      0.384130000000     0.375530000000     0.022630000000    -0.277104   
N32      N      0.131770000000     0.127190000000     0.023070000000    -0.259936   
N33      N      0.882480000000     0.999470000000     0.878460000000    -0.231305   
N34      N      0.629230000000     0.008660000000     0.633780000000    -0.243176   
N35      N      0.379020000000     0.998400000000     0.628470000000    -0.236059   
N36      N      0.134060000000     0.002880000000     0.881440000000    -0.246069   
N37      N      0.127170000000     0.022650000000     0.132070000000    -0.275805   
N38      N      0.379270000000     0.011410000000     0.377630000000    -0.252282   
N39      N      0.631100000000     0.022730000000     0.382290000000    -0.278001   
N40      N      0.874570000000     0.017960000000     0.127560000000    -0.250181   
N41      N      0.019800000000     0.127000000000     0.875220000000    -0.25747    
N42      N      0.013360000000     0.378620000000     0.631200000000    -0.248779   
N43      N      0.001340000000     0.875860000000     0.884340000000    -0.239867   
N44      N      0.998100000000     0.628510000000     0.629800000000    -0.222425   
N45      N      0.001700000000     0.881610000000     0.134510000000    -0.268153   
N46      N      0.009000000000     0.631400000000     0.379750000000    -0.256747   
N47      N      0.021380000000     0.133630000000     0.126450000000    -0.272684   
N48      N      0.024540000000     0.379850000000     0.380330000000    -0.264481   
O1       O      0.015870000000     0.113240000000     0.057140000000    -1.01565    
O2       O      0.003100000000     0.897710000000     0.064540000000    -0.792711   
O3       O      0.944610000000     0.011950000000     0.110900000000    -0.992813   
O4       O      0.057810000000     0.016160000000     0.112350000000    -1.05179    
O5       O      0.110260000000     0.014750000000     0.062540000000    -1.04478    
O6       O      0.893920000000     0.012990000000     0.058290000000    -0.773234   
O7       O      0.001250000000     0.951030000000     0.114080000000    -0.979905   
O8       O      0.012780000000     0.063890000000     0.109840000000    -1.04938    
O9       O      0.047230000000     0.965910000000     0.052000000000    -2.06587    
O10      O      0.965090000000     0.052140000000     0.047110000000    -2.07419    
O11      O      0.957730000000     0.963120000000     0.052350000000    -0.858675   
O12      O      0.013520000000     0.013850000000     0.013660000000    -2.56544    
O13      O      0.001130000000     0.896960000000     0.954100000000    -0.688441   
O14      O      0.014020000000     0.110200000000     0.945110000000    -0.928946   
O15      O      0.896400000000     0.953160000000     0.003200000000    -0.722221   
O16      O      0.110650000000     0.945840000000     0.015280000000    -0.931848   
O17      O      0.112600000000     0.058040000000     0.016290000000    -1.03117    
O18      O      0.897760000000     0.063400000000     0.007140000000    -0.763974   
O19      O      0.952590000000     0.002200000000     0.897570000000    -0.56094    
O20      O      0.063960000000     0.002560000000     0.897860000000    -0.618817   
O21      O      0.899930000000     0.002920000000     0.948490000000    -0.70387    
O22      O      0.114130000000     0.004760000000     0.950820000000    -0.922418   
O23      O      0.946470000000     0.899730000000     0.005850000000    -0.71688    
O24      O      0.949970000000     0.113710000000     0.004490000000    -0.928363   
O25      O      0.062250000000     0.110440000000     0.013930000000    -1.02648    
O26      O      0.057930000000     0.895900000000     0.017690000000    -0.760119   
O27      O      0.005630000000     0.946460000000     0.900430000000    -0.566927   
O28      O      0.013440000000     0.057670000000     0.895010000000    -0.603073   
O29      O      0.051050000000     0.046630000000     0.965640000000    -1.96972    
O30      O      0.967140000000     0.967120000000     0.967360000000    -1.58871    
O31      O      0.961760000000     0.047570000000     0.957920000000    -1.24035    
O32      O      0.047870000000     0.957150000000     0.963250000000    -1.23539    
O33      O      0.016140000000     0.397530000000     0.449640000000    -1.03631    
O34      O      0.007170000000     0.613510000000     0.449250000000    -0.785774   
O35      O      0.949040000000     0.502780000000     0.396880000000    -1.01681    
O36      O      0.061070000000     0.494300000000     0.399130000000    -1.07914    
O37      O      0.112280000000     0.494760000000     0.450580000000    -1.0513     
O38      O      0.896370000000     0.500580000000     0.446940000000    -0.793409   
O39      O      0.007290000000     0.561730000000     0.397760000000    -1.01212    
O40      O      0.015520000000     0.448980000000     0.398460000000    -1.0538     
O41      O      0.049650000000     0.544390000000     0.460900000000    -2.11252    
O42      O      0.965710000000     0.459420000000     0.459710000000    -2.09737    
O43      O      0.960310000000     0.548650000000     0.457490000000    -0.866033   
O44      O      0.013420000000     0.495460000000     0.496380000000    -2.58219    
O45      O      0.000620000000     0.610460000000     0.559680000000    -0.700752   
O46      O      0.009630000000     0.396720000000     0.561540000000    -0.934591   
O47      O      0.897340000000     0.558160000000     0.504410000000    -0.734913   
O48      O      0.111950000000     0.562100000000     0.501720000000    -0.958468   
O49      O      0.111450000000     0.450140000000     0.494840000000    -1.05934    
O50      O      0.896260000000     0.448250000000     0.495720000000    -0.776455   
O51      O      0.948090000000     0.504370000000     0.610660000000    -0.577989   
O52      O      0.060240000000     0.499370000000     0.613720000000    -0.628405   
O53      O      0.897430000000     0.506020000000     0.557650000000    -0.704154   
O54      O      0.111490000000     0.499650000000     0.562260000000    -0.952617   
O55      O      0.948710000000     0.610530000000     0.505280000000    -0.725439   
O56      O      0.947460000000     0.396430000000     0.498940000000    -0.92889    
O57      O      0.060430000000     0.398290000000     0.494380000000    -1.03698    
O58      O      0.059910000000     0.613110000000     0.499110000000    -0.761998   
O59      O      0.002300000000     0.558630000000     0.611800000000    -0.585338   
O60      O      0.007770000000     0.447920000000     0.613430000000    -0.632297   
O61      O      0.048410000000     0.460420000000     0.544200000000    -1.99107    
O62      O      0.966200000000     0.541460000000     0.542520000000    -1.60222    
O63      O      0.958880000000     0.460750000000     0.548800000000    -1.26116    
O64      O      0.046910000000     0.549630000000     0.550150000000    -1.23633    
O65      O      0.612010000000     0.016620000000     0.451690000000    -1.04501    
O66      O      0.395980000000     0.007590000000     0.447630000000    -0.773944   
O67      O      0.507050000000     0.949670000000     0.397260000000    -0.997483   
O68      O      0.513480000000     0.062950000000     0.400000000000    -1.05982    
O69      O      0.512970000000     0.112950000000     0.452120000000    -1.05502    
O70      O      0.509970000000     0.897090000000     0.447420000000    -0.790802   
O71      O      0.448750000000     0.007860000000     0.397080000000    -1.00439    
O72      O      0.561480000000     0.016380000000     0.399930000000    -1.07789    
O73      O      0.465060000000     0.049940000000     0.461190000000    -2.10232    
O74      O      0.550510000000     0.966610000000     0.460770000000    -2.09162    
O75      O      0.461320000000     0.960730000000     0.457160000000    -0.867025   
O76      O      0.513490000000     0.014100000000     0.497040000000    -2.58586    
O77      O      0.397790000000     0.000420000000     0.558310000000    -0.699099   
O78      O      0.611720000000     0.008400000000     0.563800000000    -0.924159   
O79      O      0.451470000000     0.897520000000     0.503420000000    -0.73384    
O80      O      0.446020000000     0.111830000000     0.501630000000    -0.941036   
O81      O      0.559290000000     0.112040000000     0.497210000000    -1.05049    
O82      O      0.562280000000     0.897330000000     0.497920000000    -0.770477   
O83      O      0.503870000000     0.949290000000     0.611090000000    -0.558688   
O84      O      0.506990000000     0.059500000000     0.614580000000    -0.60978    
O85      O      0.503020000000     0.898080000000     0.558830000000    -0.693265   
O86      O      0.507180000000     0.111500000000     0.564060000000    -0.950598   
O87      O      0.398710000000     0.948470000000     0.503300000000    -0.720285   
O88      O      0.613320000000     0.949260000000     0.501600000000    -0.936718   
O89      O      0.610940000000     0.061100000000     0.497960000000    -1.04519    
O90      O      0.395620000000     0.059730000000     0.497870000000    -0.744785   
O91      O      0.448920000000     0.002550000000     0.610780000000    -0.578468   
O92      O      0.559660000000     0.007710000000     0.614890000000    -0.608312   
O93      O      0.548080000000     0.049090000000     0.545680000000    -2.0053     
O94      O      0.467110000000     0.966370000000     0.542270000000    -1.59499    
O95      O      0.547800000000     0.959540000000     0.549800000000    -1.24967    
O96      O      0.458330000000     0.046820000000     0.549980000000    -1.24206    
O97      O      0.399510000000     0.445930000000     0.016660000000    -1.04954    
O98      O      0.615650000000     0.453320000000     0.007150000000    -0.78992    
O99      O      0.506520000000     0.398330000000     0.947580000000    -1.02071    
O100     O      0.500740000000     0.398450000000     0.060360000000    -1.07603    
O101     O      0.497450000000     0.449380000000     0.111930000000    -1.06456    
O102     O      0.502360000000     0.449640000000     0.895850000000    -0.811473   
O103     O      0.565500000000     0.400260000000     0.005400000000    -1.02361    
O104     O      0.452790000000     0.397170000000     0.014690000000    -1.07428    
O105     O      0.545850000000     0.462240000000     0.049310000000    -2.13068    
O106     O      0.460640000000     0.459380000000     0.965990000000    -2.09825    
O107     O      0.550170000000     0.460160000000     0.960010000000    -0.870772   
O108     O      0.495740000000     0.496330000000     0.014100000000    -2.5969     
O109     O      0.608970000000     0.562800000000     0.001460000000    -0.715575   
O110     O      0.394540000000     0.558120000000     0.011200000000    -0.936882   
O111     O      0.558310000000     0.508280000000     0.897670000000    -0.73849    
O112     O      0.561930000000     0.501350000000     0.112180000000    -0.991467   
O113     O      0.450640000000     0.493250000000     0.112450000000    -1.07227    
O114     O      0.447070000000     0.496680000000     0.897820000000    -0.782264   
O115     O      0.500720000000     0.611780000000     0.950040000000    -0.571876   
O116     O      0.497530000000     0.613710000000     0.061560000000    -0.626591   
O117     O      0.504340000000     0.559340000000     0.898640000000    -0.729122   
O118     O      0.499060000000     0.561800000000     0.112760000000    -0.956633   
O119     O      0.610790000000     0.510470000000     0.949400000000    -0.726024   
O120     O      0.395990000000     0.496590000000     0.949950000000    -0.957879   
O121     O      0.398510000000     0.491540000000     0.062280000000    -1.04467    
O122     O      0.613230000000     0.501860000000     0.060330000000    -0.76598    
O123     O      0.555840000000     0.613620000000     0.003840000000    -0.575493   
O124     O      0.444060000000     0.611750000000     0.010700000000    -0.622024   
O125     O      0.459300000000     0.542870000000     0.049810000000    -2.0157     
O126     O      0.540120000000     0.544620000000     0.967290000000    -1.59951    
O127     O      0.459020000000     0.548390000000     0.960580000000    -1.23519    
O128     O      0.548470000000     0.551380000000     0.047910000000    -1.22975    
Tb1      Tb     0.002260000000     0.006730000000     0.075060000000     6.32354    
Tb2      Tb     0.004120000000     0.936040000000     0.009930000000     4.30382    
Tb3      Tb     0.005880000000     0.074970000000     0.002410000000     6.16489    
Tb4      Tb     0.935720000000     0.008080000000     0.005940000000     4.3681     
Tb5      Tb     0.074900000000     0.002690000000     0.006500000000     6.234      
Tb6      Tb     0.008570000000     0.004450000000     0.935960000000     3.14488    
Tb7      Tb     0.004880000000     0.505010000000     0.434950000000     6.41954    
Tb8      Tb     0.005480000000     0.573350000000     0.502580000000     4.2462     
Tb9      Tb     0.004150000000     0.434070000000     0.505090000000     6.18205    
Tb10     Tb     0.935540000000     0.502510000000     0.501340000000     4.46702    
Tb11     Tb     0.074670000000     0.505440000000     0.505920000000     6.42935    
Tb12     Tb     0.005650000000     0.502170000000     0.574100000000     3.14478    
Tb13     Tb     0.504980000000     0.005670000000     0.435400000000     6.367      
Tb14     Tb     0.435580000000     0.005490000000     0.501850000000     4.31795    
Tb15     Tb     0.574910000000     0.005040000000     0.506690000000     6.33195    
Tb16     Tb     0.507020000000     0.936000000000     0.501780000000     4.37239    
Tb17     Tb     0.503240000000     0.075130000000     0.506910000000     6.37135    
Tb18     Tb     0.505900000000     0.005990000000     0.574350000000     3.13289    
Tb19     Tb     0.507420000000     0.435490000000     0.004330000000     6.46823    
Tb20     Tb     0.573480000000     0.505180000000     0.005830000000     4.28464    
Tb21     Tb     0.433980000000     0.503130000000     0.005570000000     6.25363    
Tb22     Tb     0.502330000000     0.502800000000     0.936150000000     4.42481    
Tb23     Tb     0.505540000000     0.505620000000     0.075260000000     6.54224    
Tb24     Tb     0.500020000000     0.574470000000     0.007160000000     3.09722    


