data_structure

_audit_creation_method RASPA-1.0
_audit_creation_date 2023-5-19
_audit_author_name 'Poobodin Mano'

_cell_length_a    20.0823
_cell_length_b    20.0026
_cell_length_c    20.1391
_cell_angle_alpha 90
_cell_angle_beta  90
_cell_angle_gamma 90
_cell_volume      8089.84

_symmetry_cell_setting          triclinic
_symmetry_space_group_name_Hall 'P 1'
_symmetry_space_group_name_H-M  'P 1'
_symmetry_Int_Tables_number     1

_symmetry_equiv_pos_as_xyz 'x,y,z'

loop_
_atom_site_label
_atom_site_type_symbol
_atom_site_fract_x
_atom_site_fract_y
_atom_site_fract_z
_atom_site_charge
C1       C      0.044860000000     0.183560000000     0.172200000000     0.724739   
C2       C      0.014850000000     0.873650000000     0.180340000000     0.671144   
C3       C      0.866310000000     0.050150000000     0.176160000000     0.677572   
C4       C      0.175370000000     0.038790000000     0.174430000000     0.749581   
C5       C      0.006870000000     0.871650000000     0.874040000000     0.554249   
C6       C      0.044890000000     0.178070000000     0.864400000000     0.654362   
C7       C      0.863020000000     0.879250000000     0.020420000000     0.577507   
C8       C      0.170190000000     0.865460000000     0.032110000000     0.70241    
C9       C      0.181180000000     0.175750000000     0.037230000000     0.718646   
C10      C      0.871970000000     0.188140000000     0.032130000000     0.691586   
C11      C      0.869680000000     0.024090000000     0.870800000000     0.566221   
C12      C      0.176640000000     0.019750000000     0.866450000000     0.652661   
C13      C      0.047280000000     0.377370000000     0.369010000000     0.70658    
C14      C      0.038590000000     0.687220000000     0.374850000000     0.677431   
C15      C      0.868890000000     0.537760000000     0.369830000000     0.668505   
C16      C      0.178630000000     0.510890000000     0.374140000000     0.730303   
C17      C      0.024720000000     0.676520000000     0.680790000000     0.563872   
C18      C      0.023480000000     0.368070000000     0.676960000000     0.64578    
C19      C      0.875280000000     0.682770000000     0.535520000000     0.588331   
C20      C      0.182990000000     0.679870000000     0.517500000000     0.685545   
C21      C      0.172750000000     0.371440000000     0.495750000000     0.704658   
C22      C      0.865150000000     0.374890000000     0.508310000000     0.679813   
C23      C      0.871690000000     0.535960000000     0.675500000000     0.564317   
C24      C      0.177540000000     0.500710000000     0.681020000000     0.643505   
C25      C      0.677170000000     0.040920000000     0.371770000000     0.730831   
C26      C      0.368650000000     0.034810000000     0.369300000000     0.674377   
C27      C      0.536140000000     0.865400000000     0.375340000000     0.678554   
C28      C      0.546880000000     0.175680000000     0.368560000000     0.736029   
C29      C      0.371690000000     0.028130000000     0.674780000000     0.564719   
C30      C      0.678900000000     0.047010000000     0.679870000000     0.638955   
C31      C      0.374370000000     0.871940000000     0.535350000000     0.588165   
C32      C      0.365770000000     0.179720000000     0.508810000000     0.692137   
C33      C      0.673360000000     0.182050000000     0.494290000000     0.718422   
C34      C      0.682160000000     0.873430000000     0.516240000000     0.683283   
C35      C      0.522880000000     0.878790000000     0.681150000000     0.560081   
C36      C      0.517680000000     0.185970000000     0.675850000000     0.658853   
C37      C      0.374670000000     0.366580000000     0.004810000000     0.726342   
C38      C      0.364140000000     0.676120000000     0.040580000000     0.67298    
C39      C      0.371530000000     0.499950000000     0.182900000000     0.678353   
C40      C      0.370170000000     0.508260000000     0.874230000000     0.735696   
C41      C      0.670590000000     0.682940000000     0.036420000000     0.555523   
C42      C      0.683530000000     0.375580000000     0.004610000000     0.655575   
C43      C      0.520700000000     0.672680000000     0.183310000000     0.585787   
C44      C      0.502370000000     0.686510000000     0.876700000000     0.678395   
C45      C      0.510580000000     0.377550000000     0.869450000000     0.748513   
C46      C      0.519960000000     0.364210000000     0.177110000000     0.687405   
C47      C      0.677200000000     0.524990000000     0.176130000000     0.569374   
C48      C      0.678250000000     0.525210000000     0.869380000000     0.641337   
C49      C      0.510280000000     0.331410000000     0.295350000000     0.00582667 
C50      C      0.517040000000     0.243270000000     0.206460000000     0.0120334  
C51      C      0.562780000000     0.294060000000     0.335470000000     0.0185022  
C52      C      0.566610000000     0.203980000000     0.249570000000     0.0129763  
C53      C      0.507610000000     0.791010000000     0.216190000000     0.000148098
C54      C      0.513440000000     0.700720000000     0.303180000000     0.00131337 
C55      C      0.553870000000     0.834280000000     0.257730000000     0.0182665  
C56      C      0.556910000000     0.746440000000     0.346190000000     0.00858536 
C57      C      0.480680000000     0.718590000000     0.759540000000     0.017664   
C58      C      0.486560000000     0.806620000000     0.847250000000     0.00870452 
C59      C      0.526300000000     0.759560000000     0.714510000000    -0.00112954 
C60      C      0.529650000000     0.850310000000     0.801270000000    -0.00450792 
C61      C      0.523270000000     0.350990000000     0.750820000000     0.0172792  
C62      C      0.520980000000     0.259610000000     0.838130000000     0.0248194  
C63      C      0.489420000000     0.303340000000     0.702280000000     0.0127747  
C64      C      0.484100000000     0.215080000000     0.789840000000    -0.00177115 
C65      C      0.789580000000     0.212830000000     0.465210000000     0.0110727  
C66      C      0.701370000000     0.300220000000     0.466950000000     0.0170036  
C67      C      0.833880000000     0.255440000000     0.509910000000     0.0144402  
C68      C      0.745290000000     0.345620000000     0.509900000000     0.00277451 
C69      C      0.756910000000     0.714000000000     0.552720000000     0.0022138  
C70      C      0.845130000000     0.802530000000     0.550290000000    -0.00159841 
C71      C      0.714650000000     0.754460000000     0.504240000000     0.00983953 
C72      C      0.801860000000     0.844480000000     0.503430000000     0.0165844  
C73      C      0.246160000000     0.209200000000     0.514810000000     0.00437819 
C74      C      0.334470000000     0.299250000000     0.510180000000     0.0170457  
C75      C      0.201270000000     0.252800000000     0.471270000000     0.0146392  
C76      C      0.288830000000     0.340820000000     0.465780000000     0.00982541 
C77      C      0.344390000000     0.752680000000     0.553680000000    -0.00119851 
C78      C      0.255760000000     0.840790000000     0.550570000000     0.00130271 
C79      C      0.302860000000     0.708830000000     0.507050000000     0.0167611  
C80      C      0.215310000000     0.798430000000     0.502250000000     0.0104794  
C81      C      0.750840000000     0.555790000000     0.338940000000     0.0083489  
C82      C      0.839800000000     0.558320000000     0.251830000000     0.0177855  
C83      C      0.707690000000     0.511930000000     0.294450000000     0.00333188 
C84      C      0.796460000000     0.515470000000     0.206190000000    -0.00528928 
C85      C      0.254700000000     0.471850000000     0.211780000000     0.0113086  
C86      C      0.342280000000     0.471620000000     0.299360000000     0.00237908 
C87      C      0.209130000000     0.514110000000     0.255490000000     0.0154583  
C88      C      0.298010000000     0.513490000000     0.344860000000     0.0180494  
C89      C      0.250860000000     0.510360000000     0.844560000000     0.0201234  
C90      C      0.340200000000     0.511560000000     0.755480000000     0.0169711  
C91      C      0.205920000000     0.470860000000     0.797430000000    -0.0036121  
C92      C      0.293980000000     0.471360000000     0.710430000000     0.00818294 
C93      C      0.841290000000     0.553470000000     0.793730000000    -0.000938426
C94      C      0.753210000000     0.555770000000     0.705720000000    -0.00108238 
C95      C      0.796560000000     0.510250000000     0.837610000000     0.00450895 
C96      C      0.707390000000     0.513720000000     0.750070000000     0.0152988  
C97      C      0.698910000000     0.803300000000     0.052860000000     0.00169646 
C98      C      0.788790000000     0.716450000000     0.050130000000    -0.00106629 
C99      C      0.742640000000     0.850060000000     0.010460000000     7.57152e-05
C100     C      0.830130000000     0.760780000000     0.004290000000     0.00303883 
C101     C      0.753990000000     0.221220000000     0.045020000000     0.00621727 
C102     C      0.843500000000     0.308830000000     0.040160000000     0.0158062  
C103     C      0.716070000000     0.257190000000     0.990270000000     0.0179817  
C104     C      0.802920000000     0.347070000000     0.988100000000     0.000388855
C105     C      0.198530000000     0.745140000000     0.025330000000     0.00278516 
C106     C      0.287690000000     0.833790000000     0.017400000000     0.020812   
C107     C      0.246070000000     0.702190000000     0.066720000000     0.0153421  
C108     C      0.331720000000     0.792940000000     0.062960000000     0.00356567 
C109     C      0.255500000000     0.333890000000     0.993720000000     0.0152192  
C110     C      0.343930000000     0.245750000000     0.994990000000     0.0151142  
C111     C      0.215860000000     0.294980000000     0.045970000000     0.0109228  
C112     C      0.302190000000     0.204540000000     0.044670000000     0.00942816 
C113     C      0.797870000000     0.061390000000     0.710510000000     0.0168139  
C114     C      0.709540000000     0.063120000000     0.798370000000     0.00286998 
C115     C      0.838560000000     0.012100000000     0.752000000000    -0.00676047 
C116     C      0.750220000000     0.014040000000     0.840210000000     0.00168395 
C117     C      0.340210000000     0.043710000000     0.792530000000    -0.00504576 
C118     C      0.252500000000     0.040990000000     0.703410000000     0.00472803 
C119     C      0.295190000000     0.002270000000     0.837560000000     0.017347   
C120     C      0.207420000000     0.000080000000     0.748960000000     0.000814972
C121     C      0.253100000000     0.065510000000     0.339220000000     0.00252211 
C122     C      0.341510000000     0.061000000000     0.252170000000     0.0109207  
C123     C      0.204280000000     0.030220000000     0.293010000000     0.0174368  
C124     C      0.293680000000     0.026120000000     0.204500000000     0.014763   
C125     C      0.796000000000     0.038190000000     0.340300000000     0.0118533  
C126     C      0.705480000000     0.035460000000     0.252670000000     0.01698    
C127     C      0.839140000000     0.079200000000     0.292950000000     0.0120457  
C128     C      0.749780000000     0.077120000000     0.207120000000     0.00245236 
C129     C      0.017350000000     0.336000000000     0.795300000000    -0.00188108 
C130     C      0.015500000000     0.247790000000     0.705690000000     0.0131625  
C131     C      0.068800000000     0.295250000000     0.833100000000     0.0185807  
C132     C      0.065050000000     0.206360000000     0.746030000000     0.00021833 
C133     C      0.987600000000     0.752070000000     0.844750000000     0.00519675 
C134     C      0.987760000000     0.839610000000     0.756340000000     2.64237e-05
C135     C      0.030220000000     0.706250000000     0.800580000000    -0.00344424 
C136     C      0.032360000000     0.795960000000     0.712760000000     0.0039317  
C137     C      0.002460000000     0.846240000000     0.300040000000     0.0120888  
C138     C      0.006930000000     0.754920000000     0.214340000000     0.00108961 
C139     C      0.050990000000     0.806840000000     0.343760000000     0.00417729 
C140     C      0.057200000000     0.717370000000     0.256960000000     0.0177498  
C141     C      0.076920000000     0.350610000000     0.251700000000     0.0105268  
C142     C      0.076840000000     0.260980000000     0.337330000000     0.00928365 
C143     C      0.042270000000     0.303640000000     0.202030000000     0.0105729  
C144     C      0.039230000000     0.214030000000     0.290770000000     0.0140205  
H1       H      0.972190000000     0.982620000000     0.073390000000    -1.25824    
H2       H      0.063310000000     0.066900000000     0.061580000000    -1.11027    
H3       H      0.966300000000     0.142080000000     0.960040000000    -0.52536    
H4       H      0.130700000000     0.961730000000     0.965410000000    -0.607252   
H5       H      0.978920000000     0.577040000000     0.476210000000    -1.25284    
H6       H      0.063640000000     0.487030000000     0.484740000000    -1.06458    
H7       H      0.960540000000     0.414180000000     0.579990000000    -0.526304   
H8       H      0.139130000000     0.582780000000     0.587980000000    -0.511806   
H9       H      0.477700000000     0.976700000000     0.475350000000    -1.26959    
H10      H      0.563650000000     0.066580000000     0.483720000000    -1.1014     
H11      H      0.638410000000     0.970340000000     0.585960000000    -0.511222   
H12      H      0.461340000000     0.139980000000     0.578070000000    -0.607398   
H13      H      0.472800000000     0.568700000000     0.075380000000    -1.23795    
H14      H      0.484400000000     0.485060000000     0.985350000000    -1.0967     
H15      H      0.588000000000     0.411270000000     0.081210000000    -0.544926   
H16      H      0.579780000000     0.592320000000     0.915140000000    -0.54729    
H17      H      0.466360000000     0.222870000000     0.215670000000     0.0233926  
H18      H      0.460230000000     0.315110000000     0.312630000000     0.0274335  
H19      H      0.555720000000     0.305550000000     0.388950000000     0.0349032  
H20      H      0.529130000000     0.234550000000     0.153320000000     0.0291745  
H21      H      0.559840000000     0.149660000000     0.240370000000     0.0327381  
H22      H      0.617840000000     0.217470000000     0.233430000000     0.0234999  
H23      H      0.514890000000     0.385690000000     0.306010000000     0.0371532  
H24      H      0.612700000000     0.313060000000     0.320710000000     0.0235372  
H25      H      0.460900000000     0.705980000000     0.319830000000     0.0260955  
H26      H      0.455310000000     0.805010000000     0.227910000000     0.0259023  
H27      H      0.543340000000     0.887640000000     0.246690000000     0.0277856  
H28      H      0.528740000000     0.648090000000     0.312060000000     0.0371283  
H29      H      0.546290000000     0.735900000000     0.399310000000     0.0358259  
H30      H      0.609980000000     0.733570000000     0.336870000000     0.0290816  
H31      H      0.516450000000     0.802770000000     0.163010000000     0.0387129  
H32      H      0.606040000000     0.823870000000     0.242270000000     0.0259549  
H33      H      0.433710000000     0.821990000000     0.841010000000     0.0295524  
H34      H      0.428220000000     0.731190000000     0.746930000000     0.0264277  
H35      H      0.512750000000     0.748690000000     0.662110000000     0.0388771  
H36      H      0.500860000000     0.816700000000     0.899610000000     0.0348761  
H37      H      0.516710000000     0.903560000000     0.810320000000     0.0400605  
H38      H      0.582670000000     0.843480000000     0.815660000000     0.0338095  
H39      H      0.487990000000     0.664710000000     0.748360000000     0.0310127  
H40      H      0.578420000000     0.742440000000     0.722250000000     0.0324801  
H41      H      0.574940000000     0.247170000000     0.836180000000     0.0244983  
H42      H      0.577740000000     0.350570000000     0.740830000000     0.0242118  
H43      H      0.507100000000     0.315040000000     0.651290000000     0.0299807  
H44      H      0.502700000000     0.247750000000     0.888910000000     0.0339223  
H45      H      0.495360000000     0.162160000000     0.802280000000     0.0391942  
H46      H      0.429680000000     0.222770000000     0.796900000000     0.0298417  
H47      H      0.504780000000     0.402380000000     0.740640000000     0.0332472  
H48      H      0.434840000000     0.312700000000     0.703870000000     0.0254448  
H49      H      0.710110000000     0.313340000000     0.413990000000     0.0229543  
H50      H      0.802080000000     0.224370000000     0.412630000000     0.0236066  
H51      H      0.886560000000     0.245390000000     0.496290000000     0.0300762  
H52      H      0.648300000000     0.310870000000     0.478240000000     0.034595   
H53      H      0.736270000000     0.398340000000     0.494930000000     0.0358733  
H54      H      0.729310000000     0.340310000000     0.562500000000     0.0282317  
H55      H      0.801110000000     0.159230000000     0.473870000000     0.0355486  
H56      H      0.826750000000     0.238900000000     0.562150000000     0.0260122  
H57      H      0.835180000000     0.819080000000     0.602070000000     0.0321787  
H58      H      0.741290000000     0.727140000000     0.604090000000     0.0314439  
H59      H      0.661290000000     0.743430000000     0.513800000000     0.0363353  
H60      H      0.898370000000     0.812790000000     0.539330000000     0.037446   
H61      H      0.811320000000     0.898240000000     0.513520000000     0.0305332  
H62      H      0.817970000000     0.834160000000     0.451600000000     0.023468   
H63      H      0.746160000000     0.660050000000     0.545310000000     0.0395578  
H64      H      0.726340000000     0.737480000000     0.452950000000     0.0275188  
H65      H      0.328540000000     0.316730000000     0.562270000000     0.024715   
H66      H      0.231710000000     0.216840000000     0.567570000000     0.0280258  
H67      H      0.148450000000     0.242080000000     0.483630000000     0.0337479  
H68      H      0.386790000000     0.309110000000     0.495080000000     0.0287917  
H69      H      0.300170000000     0.394610000000     0.473360000000     0.0371464  
H70      H      0.300390000000     0.328580000000     0.413140000000     0.0233532  
H71      H      0.236540000000     0.155940000000     0.502330000000     0.0356793  
H72      H      0.209790000000     0.238080000000     0.418750000000     0.0220245  
H73      H      0.238710000000     0.829280000000     0.601870000000     0.0322306  
H74      H      0.332880000000     0.737910000000     0.605680000000     0.0315366  
H75      H      0.312180000000     0.655500000000     0.519360000000     0.0295961  
H76      H      0.245020000000     0.894380000000     0.540940000000     0.0385423  
H77      H      0.161640000000     0.809580000000     0.509650000000     0.0372161  
H78      H      0.228580000000     0.813670000000     0.450800000000     0.02669    
H79      H      0.398000000000     0.742270000000     0.544850000000     0.037462   
H80      H      0.320460000000     0.717400000000     0.455380000000     0.0232578  
H81      H      0.831040000000     0.611780000000     0.239370000000     0.0235473  
H82      H      0.736620000000     0.608880000000     0.330570000000     0.0271827  
H83      H      0.654620000000     0.523360000000     0.305140000000     0.0384241  
H84      H      0.892950000000     0.547100000000     0.241330000000     0.0280525  
H85      H      0.806690000000     0.530260000000     0.153990000000     0.0387901  
H86      H      0.811740000000     0.462350000000     0.212040000000     0.0322053  
H87      H      0.739590000000     0.543520000000     0.391560000000     0.0364695  
H88      H      0.716550000000     0.458750000000     0.307950000000     0.0307325  
H89      H      0.333550000000     0.417920000000     0.310850000000     0.0268561  
H90      H      0.242910000000     0.418260000000     0.220720000000     0.0228915  
H91      H      0.156850000000     0.498920000000     0.245470000000     0.0322699  
H92      H      0.395260000000     0.482840000000     0.310690000000     0.0371427  
H93      H      0.307570000000     0.497850000000     0.396940000000     0.0336132  
H94      H      0.313200000000     0.566760000000     0.340290000000     0.0229382  
H95      H      0.243490000000     0.482810000000     0.158870000000     0.0295708  
H96      H      0.214430000000     0.567390000000     0.240590000000     0.0229427  
H97      H      0.336540000000     0.565230000000     0.741510000000     0.0249213  
H98      H      0.236340000000     0.563960000000     0.842190000000     0.0248743  
H99      H      0.153150000000     0.483060000000     0.808700000000     0.0382422  
H100     H      0.392150000000     0.495150000000     0.745540000000     0.034007   
H101     H      0.305690000000     0.483560000000     0.657900000000     0.0312411  
H102     H      0.304680000000     0.417320000000     0.718010000000     0.024909   
H103     H      0.241200000000     0.492650000000     0.896000000000     0.0304596  
H104     H      0.213170000000     0.416680000000     0.807610000000     0.0278508  
H105     H      0.740950000000     0.609410000000     0.713620000000     0.0324827  
H106     H      0.833600000000     0.606710000000     0.807720000000     0.033281   
H107     H      0.807850000000     0.521790000000     0.890390000000     0.0384363  
H108     H      0.742210000000     0.543730000000     0.652990000000     0.0387579  
H109     H      0.655020000000     0.528730000000     0.740300000000     0.0313801  
H110     H      0.712670000000     0.460400000000     0.735350000000     0.0270463  
H111     H      0.894040000000     0.540820000000     0.804610000000     0.0404572  
H112     H      0.809530000000     0.456900000000     0.828970000000     0.0319506  
H113     H      0.804490000000     0.726220000000     0.102200000000     0.0306634  
H114     H      0.706470000000     0.816530000000     0.105960000000     0.0294284  
H115     H      0.733230000000     0.902510000000     0.026040000000     0.0362456  
H116     H      0.800440000000     0.663360000000     0.038870000000     0.039163   
H117     H      0.883600000000     0.749200000000     0.012420000000     0.0394014  
H118     H      0.818100000000     0.747380000000     0.952050000000     0.0346098  
H119     H      0.645800000000     0.813010000000     0.040770000000     0.0375485  
H120     H      0.726650000000     0.845290000000     0.957800000000     0.0340351  
H121     H      0.831170000000     0.329630000000     0.089880000000     0.0265179  
H122     H      0.735390000000     0.239500000000     0.093790000000     0.0295063  
H123     H      0.662130000000     0.246070000000     0.995320000000     0.0314703  
H124     H      0.897350000000     0.317680000000     0.031140000000     0.0298621  
H125     H      0.812120000000     0.401520000000     0.993860000000     0.0384219  
H126     H      0.821170000000     0.332160000000     0.938100000000     0.0307362  
H127     H      0.742980000000     0.166890000000     0.042090000000     0.0370615  
H128     H      0.732880000000     0.237060000000     0.941570000000     0.0266221  
H129     H      0.300860000000     0.821830000000     0.965070000000     0.0285096  
H130     H      0.201750000000     0.728540000000     0.972730000000     0.030078   
H131     H      0.236290000000     0.648650000000     0.055750000000     0.0282078  
H132     H      0.299070000000     0.887470000000     0.025780000000     0.0310474  
H133     H      0.384590000000     0.805340000000     0.052400000000     0.0367605  
H134     H      0.321120000000     0.807690000000     0.115170000000     0.0264085  
H135     H      0.146780000000     0.735980000000     0.042690000000     0.0350167  
H136     H      0.234640000000     0.710690000000     0.120100000000     0.0230024  
H137     H      0.332470000000     0.227430000000     0.944120000000     0.0229573  
H138     H      0.237140000000     0.318870000000     0.943780000000     0.0227035  
H139     H      0.162110000000     0.306330000000     0.039510000000     0.033549   
H140     H      0.397590000000     0.236150000000     0.004400000000     0.0309095  
H141     H      0.310720000000     0.150530000000     0.035040000000     0.0329289  
H142     H      0.320890000000     0.215460000000     0.095500000000     0.0232651  
H143     H      0.245030000000     0.388070000000     0.999740000000     0.0325305  
H144     H      0.230820000000     0.313400000000     0.095910000000     0.0230757  
H145     H      0.722210000000     0.114740000000     0.814590000000     0.0310009  
H146     H      0.815190000000     0.112850000000     0.722360000000     0.0273948  
H147     H      0.892260000000     0.020410000000     0.741670000000     0.0398029  
H148     H      0.655800000000     0.055050000000     0.808640000000     0.0377115  
H149     H      0.740170000000     0.024030000000     0.893530000000     0.0390394  
H150     H      0.732530000000     0.962550000000     0.829110000000     0.0343788  
H151     H      0.808140000000     0.052150000000     0.657100000000     0.0301203  
H152     H      0.826070000000     0.960570000000     0.735430000000     0.0348158  
H153     H      0.238730000000     0.094610000000     0.708450000000     0.030574   
H154     H      0.332930000000     0.097470000000     0.804680000000     0.0322203  
H155     H      0.305710000000     0.016180000000     0.889930000000     0.0309317  
H156     H      0.242350000000     0.025910000000     0.651280000000     0.0381055  
H157     H      0.154790000000     0.012780000000     0.737520000000     0.0376703  
H158     H      0.214740000000     0.946210000000     0.737330000000     0.0340644  
H159     H      0.392780000000     0.030800000000     0.804030000000     0.0391911  
H160     H      0.308440000000     0.948640000000     0.831310000000     0.0293884  
H161     H      0.339250000000     0.115720000000     0.242560000000     0.023623   
H162     H      0.246140000000     0.120420000000     0.333680000000     0.0271704  
H163     H      0.153640000000     0.050210000000     0.303260000000     0.0303756  
H164     H      0.392960000000     0.044020000000     0.240870000000     0.0273878  
H165     H      0.305190000000     0.043500000000     0.153330000000     0.0327412  
H166     H      0.303480000000     0.971420000000     0.206330000000     0.0233654  
H167     H      0.240330000000     0.052230000000     0.391250000000     0.0369148  
H168     H      0.203910000000     0.976040000000     0.305420000000     0.0234832  
H169     H      0.710830000000     0.981930000000     0.238720000000     0.0240242  
H170     H      0.811290000000     0.984880000000     0.336600000000     0.0249336  
H171     H      0.892360000000     0.068350000000     0.303410000000     0.0298037  
H172     H      0.652920000000     0.050110000000     0.243290000000     0.0331189  
H173     H      0.737600000000     0.064850000000     0.154710000000     0.0361248  
H174     H      0.737850000000     0.130830000000     0.215170000000     0.0277362  
H175     H      0.806420000000     0.055070000000     0.391840000000     0.0335417  
H176     H      0.830580000000     0.133080000000     0.303680000000     0.0238512  
H177     H      0.964410000000     0.229880000000     0.717400000000     0.0297363  
H178     H      0.967080000000     0.323020000000     0.814570000000     0.0341676  
H179     H      0.064450000000     0.306290000000     0.886970000000     0.0302234  
H180     H      0.024550000000     0.238630000000     0.652030000000     0.0305918  
H181     H      0.056240000000     0.152430000000     0.736250000000     0.0373909  
H182     H      0.116130000000     0.218600000000     0.728450000000     0.02964    
H183     H      0.026170000000     0.389800000000     0.805770000000     0.0389816  
H184     H      0.119220000000     0.311340000000     0.816700000000     0.0245964  
H185     H      0.935030000000     0.829630000000     0.742580000000     0.0331117  
H186     H      0.934380000000     0.738850000000     0.836940000000     0.0316308  
H187     H      0.015120000000     0.653630000000     0.809940000000     0.0384502  
H188     H      0.998150000000     0.892930000000     0.744960000000     0.040782   
H189     H      0.020370000000     0.806780000000     0.659980000000     0.0386117  
H190     H      0.085010000000     0.810920000000     0.721300000000     0.0327242  
H191     H      0.999730000000     0.741640000000     0.897580000000     0.0391909  
H192     H      0.083090000000     0.711450000000     0.816120000000     0.0340873  
H193     H      0.956270000000     0.735990000000     0.226380000000     0.0271763  
H194     H      0.950910000000     0.834150000000     0.316260000000     0.0233943  
H195     H      0.039600000000     0.817300000000     0.396740000000     0.0348975  
H196     H      0.016960000000     0.743440000000     0.161310000000     0.0366353  
H197     H      0.052450000000     0.662980000000     0.246950000000     0.0293247  
H198     H      0.108070000000     0.732850000000     0.241390000000     0.0251967  
H199     H      0.010530000000     0.900490000000     0.308680000000     0.0291098  
H200     H      0.102270000000     0.825180000000     0.333560000000     0.0282237  
H201     H      0.130990000000     0.251700000000     0.330620000000     0.0219749  
H202     H      0.131570000000     0.347250000000     0.243320000000     0.021088   
H203     H      0.063010000000     0.313580000000     0.151780000000     0.0321702  
H204     H      0.063740000000     0.248050000000     0.389340000000     0.0355951  
H205     H      0.056110000000     0.162150000000     0.301280000000     0.03126    
H206     H      0.985240000000     0.216730000000     0.302790000000     0.0253685  
H207     H      0.061640000000     0.402840000000     0.240710000000     0.0323143  
H208     H      0.988450000000     0.316660000000     0.200510000000     0.0262257  
N1       N      0.558640000000     0.222240000000     0.320080000000    -0.235484   
N2       N      0.517350000000     0.314910000000     0.224270000000    -0.221095   
N3       N      0.546120000000     0.817070000000     0.328340000000    -0.223291   
N4       N      0.517560000000     0.719790000000     0.232480000000    -0.203861   
N5       N      0.522160000000     0.831410000000     0.730640000000    -0.194893   
N6       N      0.492760000000     0.735400000000     0.829750000000    -0.219571   
N7       N      0.502190000000     0.233650000000     0.721610000000    -0.215474   
N8       N      0.512140000000     0.330620000000     0.820420000000    -0.237915   
N9       N      0.816340000000     0.327080000000     0.505010000000    -0.219684   
N10      N      0.719410000000     0.229640000000     0.477310000000    -0.232086   
N11      N      0.730990000000     0.826040000000     0.510170000000    -0.221334   
N12      N      0.827830000000     0.731170000000     0.544310000000    -0.202839   
N13      N      0.218900000000     0.323750000000     0.479360000000    -0.229167   
N14      N      0.316980000000     0.227570000000     0.506940000000    -0.222042   
N15      N      0.231820000000     0.727160000000     0.511130000000    -0.221992   
N16      N      0.326900000000     0.823720000000     0.544700000000    -0.203416   
N17      N      0.725460000000     0.521640000000     0.224010000000    -0.198111   
N18      N      0.821600000000     0.547150000000     0.321820000000    -0.222131   
N19      N      0.227010000000     0.507690000000     0.326360000000    -0.233347   
N20      N      0.324640000000     0.484150000000     0.229630000000    -0.220857   
N21      N      0.224170000000     0.484530000000     0.728010000000    -0.212314   
N22      N      0.321890000000     0.504510000000     0.826240000000    -0.235505   
N23      N      0.725810000000     0.520410000000     0.820700000000    -0.21245    
N24      N      0.823690000000     0.544870000000     0.723180000000    -0.196137   
N25      N      0.813730000000     0.831860000000     0.015080000000    -0.201098   
N26      N      0.717480000000     0.732500000000     0.043380000000    -0.195601   
N27      N      0.731970000000     0.328950000000     0.993790000000    -0.215415   
N28      N      0.825370000000     0.237360000000     0.038960000000    -0.22302    
N29      N      0.315650000000     0.721870000000     0.054100000000    -0.223022   
N30      N      0.217210000000     0.816360000000     0.028850000000    -0.224677   
N31      N      0.230980000000     0.222910000000     0.041460000000    -0.230111   
N32      N      0.326980000000     0.317500000000     0.998690000000    -0.231606   
N33      N      0.821460000000     0.018830000000     0.822950000000    -0.196943   
N34      N      0.726720000000     0.055770000000     0.727560000000    -0.213414   
N35      N      0.224810000000     0.011580000000     0.819100000000    -0.214636   
N36      N      0.323050000000     0.032920000000     0.722160000000    -0.197298   
N37      N      0.223440000000     0.038010000000     0.222660000000    -0.237865   
N38      N      0.322110000000     0.048400000000     0.321500000000    -0.221252   
N39      N      0.820090000000     0.065530000000     0.223700000000    -0.221059   
N40      N      0.724710000000     0.043380000000     0.323100000000    -0.233212   
N41      N      0.059410000000     0.224250000000     0.816720000000    -0.216766   
N42      N      0.020520000000     0.319080000000     0.724010000000    -0.21385    
N43      N      0.024910000000     0.724510000000     0.729670000000    -0.196523   
N44      N      0.997290000000     0.822880000000     0.826930000000    -0.194025   
N45      N      0.047490000000     0.735190000000     0.327310000000    -0.222357   
N46      N      0.010020000000     0.826890000000     0.229660000000    -0.221822   
N47      N      0.048560000000     0.232300000000     0.220280000000    -0.231859   
N48      N      0.062640000000     0.331150000000     0.320790000000    -0.22922    
O1       O      0.042770000000     0.202120000000     0.108320000000    -1.05083    
O2       O      0.017620000000     0.852470000000     0.117130000000    -0.78636    
O3       O      0.930200000000     0.043110000000     0.195050000000    -1.02451    
O4       O      0.111590000000     0.038210000000     0.193380000000    -1.10276    
O5       O      0.194600000000     0.036010000000     0.111000000000    -1.11661    
O6       O      0.846180000000     0.045480000000     0.112720000000    -0.792994   
O7       O      0.014730000000     0.938680000000     0.197490000000    -1.03306    
O8       O      0.039910000000     0.119850000000     0.191820000000    -1.08724    
O9       O      0.091230000000     0.961470000000     0.095430000000    -2.12077    
O10      O      0.961100000000     0.103600000000     0.091770000000    -2.11601    
O11      O      0.946350000000     0.959700000000     0.099410000000    -0.868002   
O12      O      0.036690000000     0.041730000000     0.036070000000    -2.60557    
O13      O      0.008140000000     0.853360000000     0.938710000000    -0.693442   
O14      O      0.040400000000     0.198870000000     0.927750000000    -0.956336   
O15      O      0.845410000000     0.944630000000     0.022220000000    -0.734665   
O16      O      0.191270000000     0.929080000000     0.029430000000    -0.999439   
O17      O      0.198020000000     0.110930000000     0.034440000000    -1.08191    
O18      O      0.850840000000     0.124600000000     0.031290000000    -0.787562   
O19      O      0.933850000000     0.026440000000     0.850970000000    -0.588857   
O20      O      0.112680000000     0.021160000000     0.847220000000    -0.625875   
O21      O      0.850270000000     0.026620000000     0.934990000000    -0.725375   
O22      O      0.195450000000     0.021930000000     0.930630000000    -0.960231   
O23      O      0.926670000000     0.857510000000     0.022960000000    -0.729544   
O24      O      0.936570000000     0.205470000000     0.026930000000    -0.957058   
O25      O      0.118010000000     0.197060000000     0.034840000000    -1.0628     
O26      O      0.105530000000     0.848320000000     0.033710000000    -0.7655     
O27      O      0.013980000000     0.935400000000     0.853030000000    -0.578207   
O28      O      0.037310000000     0.114110000000     0.846040000000    -0.632053   
O29      O      0.096000000000     0.094360000000     0.958030000000    -2.03772    
O30      O      0.958990000000     0.967920000000     0.962770000000    -1.59803    
O31      O      0.951690000000     0.098890000000     0.948770000000    -1.24165    
O32      O      0.087700000000     0.949670000000     0.952350000000    -1.20003    
O33      O      0.040170000000     0.356140000000     0.431630000000    -1.03375    
O34      O      0.036270000000     0.705880000000     0.438920000000    -0.792443   
O35      O      0.933420000000     0.536610000000     0.351520000000    -1.02003    
O36      O      0.115160000000     0.515750000000     0.354700000000    -1.06717    
O37      O      0.197510000000     0.511760000000     0.437760000000    -1.0458     
O38      O      0.848820000000     0.533190000000     0.433230000000    -0.799519   
O39      O      0.033730000000     0.623290000000     0.354840000000    -1.02376    
O40      O      0.041440000000     0.441610000000     0.351450000000    -1.06673    
O41      O      0.098670000000     0.590800000000     0.456380000000    -2.10173    
O42      O      0.958910000000     0.457660000000     0.450360000000    -2.08605    
O43      O      0.955280000000     0.603350000000     0.451240000000    -0.871547   
O44      O      0.038410000000     0.512620000000     0.511120000000    -2.56933    
O45      O      0.025200000000     0.697180000000     0.616890000000    -0.724809   
O46      O      0.023790000000     0.350300000000     0.612390000000    -0.928288   
O47      O      0.854310000000     0.618860000000     0.530460000000    -0.742798   
O48      O      0.200810000000     0.615110000000     0.521820000000    -0.951593   
O49      O      0.193540000000     0.434560000000     0.502680000000    -1.05364    
O50      O      0.847490000000     0.439720000000     0.510810000000    -0.767828   
O51      O      0.935510000000     0.529550000000     0.695660000000    -0.590423   
O52      O      0.113920000000     0.507720000000     0.700170000000    -0.633483   
O53      O      0.852590000000     0.535020000000     0.611110000000    -0.708411   
O54      O      0.197220000000     0.506610000000     0.617360000000    -0.946901   
O55      O      0.939980000000     0.701630000000     0.533070000000    -0.742117   
O56      O      0.928880000000     0.354460000000     0.511160000000    -0.956042   
O57      O      0.109230000000     0.352650000000     0.503190000000    -1.0347     
O58      O      0.119380000000     0.700270000000     0.518430000000    -0.781822   
O59      O      0.026480000000     0.611450000000     0.699070000000    -0.58775    
O60      O      0.023480000000     0.431740000000     0.697500000000    -0.641293   
O61      O      0.093160000000     0.451410000000     0.586510000000    -1.99349    
O62      O      0.965340000000     0.587230000000     0.586990000000    -1.61532    
O63      O      0.949030000000     0.457270000000     0.594280000000    -1.23751    
O64      O      0.095910000000     0.596440000000     0.599790000000    -1.27198    
O65      O      0.696760000000     0.041040000000     0.435270000000    -1.03539    
O66      O      0.348600000000     0.031890000000     0.432770000000    -0.789462   
O67      O      0.529630000000     0.929150000000     0.354830000000    -1.03535    
O68      O      0.542840000000     0.111320000000     0.351190000000    -1.07951    
O69      O      0.539710000000     0.197170000000     0.430950000000    -1.09898    
O70      O      0.535100000000     0.847290000000     0.439490000000    -0.802872   
O71      O      0.432850000000     0.029090000000     0.350820000000    -1.03021    
O72      O      0.613580000000     0.035790000000     0.353130000000    -1.08117    
O73      O      0.459940000000     0.096720000000     0.450460000000    -2.14633    
O74      O      0.597530000000     0.962310000000     0.455620000000    -2.10213    
O75      O      0.453520000000     0.950930000000     0.450380000000    -0.868741   
O76      O      0.538450000000     0.041280000000     0.510410000000    -2.59844    
O77      O      0.352680000000     0.025170000000     0.610500000000    -0.707963   
O78      O      0.698110000000     0.042560000000     0.615960000000    -0.938188   
O79      O      0.438870000000     0.852730000000     0.533230000000    -0.754792   
O80      O      0.429740000000     0.199860000000     0.510300000000    -0.978883   
O81      O      0.610080000000     0.201120000000     0.502290000000    -1.0968     
O82      O      0.618380000000     0.853250000000     0.518250000000    -0.774933   
O83      O      0.525270000000     0.943910000000     0.698850000000    -0.578495   
O84      O      0.521940000000     0.122520000000     0.696550000000    -0.633561   
O85      O      0.523320000000     0.857580000000     0.617340000000    -0.721218   
O86      O      0.520700000000     0.203860000000     0.611440000000    -0.972889   
O87      O      0.353700000000     0.935940000000     0.529450000000    -0.744256   
O88      O      0.700230000000     0.938150000000     0.519380000000    -0.943726   
O89      O      0.693930000000     0.118810000000     0.501230000000    -1.05521    
O90      O      0.347810000000     0.115070000000     0.511800000000    -0.751987   
O91      O      0.435810000000     0.030550000000     0.694830000000    -0.576371   
O92      O      0.614990000000     0.043340000000     0.698960000000    -0.622527   
O93      O      0.594500000000     0.102650000000     0.585810000000    -2.01938    
O94      O      0.464730000000     0.967320000000     0.586960000000    -1.59159    
O95      O      0.595330000000     0.957180000000     0.598600000000    -1.24902    
O96      O      0.450070000000     0.097180000000     0.593040000000    -1.21744    
O97      O      0.438960000000     0.348820000000     0.007320000000    -1.06011    
O98      O      0.426940000000     0.698120000000     0.034040000000    -0.784954   
O99      O      0.351670000000     0.506750000000     0.119420000000    -1.01708    
O100     O      0.351280000000     0.510910000000     0.937890000000    -1.08792    
O101     O      0.433640000000     0.512190000000     0.854830000000    -1.08429    
O102     O      0.435350000000     0.505180000000     0.202100000000    -0.786418   
O103     O      0.347260000000     0.611030000000     0.038780000000    -1.03239    
O104     O      0.354340000000     0.430070000000     0.009430000000    -1.08649    
O105     O      0.448170000000     0.589610000000     0.957490000000    -2.09923    
O106     O      0.455130000000     0.447680000000     0.087930000000    -2.14299    
O107     O      0.446730000000     0.591230000000     0.101550000000    -0.875855   
O108     O      0.509780000000     0.510640000000     0.011680000000    -2.59914    
O109     O      0.605470000000     0.700330000000     0.036400000000    -0.697733   
O110     O      0.620080000000     0.354450000000     0.008970000000    -0.96787    
O111     O      0.522080000000     0.607450000000     0.201020000000    -0.745045   
O112     O      0.508770000000     0.622990000000     0.855790000000    -0.971996   
O113     O      0.511550000000     0.442000000000     0.852000000000    -1.08231    
O114     O      0.518840000000     0.427960000000     0.197600000000    -0.777613   
O115     O      0.696500000000     0.525500000000     0.111880000000    -0.588174   
O116     O      0.698170000000     0.526850000000     0.932960000000    -0.621599   
O117     O      0.612970000000     0.524070000000     0.195920000000    -0.728485   
O118     O      0.613630000000     0.527080000000     0.851390000000    -0.938962   
O119     O      0.519680000000     0.694470000000     0.119880000000    -0.732018   
O120     O      0.523740000000     0.346840000000     0.112550000000    -0.963107   
O121     O      0.512530000000     0.356150000000     0.932160000000    -1.11446    
O122     O      0.504430000000     0.703600000000     0.941320000000    -0.74961    
O123     O      0.692300000000     0.619310000000     0.029980000000    -0.585557   
O124     O      0.701360000000     0.439950000000     0.010280000000    -0.624424   
O125     O      0.587550000000     0.458750000000     0.952200000000    -2.02677    
O126     O      0.583600000000     0.585520000000     0.088050000000    -1.58334    
O127     O      0.598890000000     0.454720000000     0.095170000000    -1.25698    
O128     O      0.592510000000     0.603670000000     0.958550000000    -1.23616    
Tb1      Tb     0.020490000000     0.028670000000     0.134920000000     6.46807    
Tb2      Tb     0.019200000000     0.915320000000     0.029060000000     4.24008    
Tb3      Tb     0.025450000000     0.141190000000     0.019260000000     6.32777    
Tb4      Tb     0.910290000000     0.033950000000     0.026260000000     4.37593    
Tb5      Tb     0.134780000000     0.021910000000     0.021840000000     6.60069    
Tb6      Tb     0.025090000000     0.027980000000     0.911020000000     3.1299     
Tb7      Tb     0.024390000000     0.530910000000     0.412650000000     6.37699    
Tb8      Tb     0.029770000000     0.638910000000     0.524130000000     4.38431    
Tb9      Tb     0.020480000000     0.413220000000     0.522430000000     6.21886    
Tb10     Tb     0.913010000000     0.527440000000     0.519780000000     4.33488    
Tb11     Tb     0.137750000000     0.524980000000     0.527130000000     6.28667    
Tb12     Tb     0.026930000000     0.520800000000     0.636320000000     3.19568    
Tb13     Tb     0.523570000000     0.022610000000     0.412040000000     6.45452    
Tb14     Tb     0.412970000000     0.027340000000     0.519280000000     4.27287    
Tb15     Tb     0.637720000000     0.028390000000     0.525640000000     6.21863    
Tb16     Tb     0.528460000000     0.914970000000     0.523690000000     4.41004    
Tb17     Tb     0.521540000000     0.140810000000     0.521720000000     6.64158    
Tb18     Tb     0.527460000000     0.033660000000     0.635360000000     3.09175    
Tb19     Tb     0.410570000000     0.521900000000     0.028560000000     6.44663    
Tb20     Tb     0.515650000000     0.636780000000     0.027850000000     4.21841    
Tb21     Tb     0.527740000000     0.411330000000     0.023360000000     6.48591    
Tb22     Tb     0.520990000000     0.518230000000     0.137090000000     4.36105    
Tb23     Tb     0.522890000000     0.530750000000     0.913450000000     6.41561    
Tb24     Tb     0.635280000000     0.525770000000     0.021390000000     3.12716    


