data_structure

_audit_creation_method RASPA-1.0
_audit_creation_date 2023-5-19
_audit_author_name 'Poobodin Mano'

_cell_length_a    32.442
_cell_length_b    32.3454
_cell_length_c    32.3849
_cell_angle_alpha 90
_cell_angle_beta  90
_cell_angle_gamma 90
_cell_volume      33983.1

_symmetry_cell_setting          triclinic
_symmetry_space_group_name_Hall 'P 1'
_symmetry_space_group_name_H-M  'P 1'
_symmetry_Int_Tables_number     1

_symmetry_equiv_pos_as_xyz 'x,y,z'

loop_
_atom_site_label
_atom_site_type_symbol
_atom_site_fract_x
_atom_site_fract_y
_atom_site_fract_z
_atom_site_charge
C1       C      0.013410000000     0.100770000000     0.103270000000     0.746899   
C2       C      0.006080000000     0.908240000000     0.101280000000     0.681113   
C3       C      0.905720000000     0.009030000000     0.102950000000     0.6724     
C4       C      0.098070000000     0.016580000000     0.101290000000     0.746328   
C5       C      0.998640000000     0.913460000000     0.910650000000     0.587533   
C6       C      0.005430000000     0.104070000000     0.911620000000     0.682231   
C7       C      0.908270000000     0.911680000000     0.003610000000     0.581524   
C8       C      0.098510000000     0.909280000000     0.008840000000     0.698139   
C9       C      0.099300000000     0.101280000000     0.014210000000     0.737984   
C10      C      0.907330000000     0.102910000000     0.011460000000     0.711612   
C11      C      0.908500000000     0.005010000000     0.912780000000     0.58405    
C12      C      0.098230000000     0.013940000000     0.908940000000     0.64891    
C13      C      0.015660000000     0.409080000000     0.415360000000     0.723988   
C14      C      0.007100000000     0.602030000000     0.411940000000     0.678212   
C15      C      0.906920000000     0.503320000000     0.411950000000     0.672857   
C16      C      0.098570000000     0.490840000000     0.414400000000     0.732757   
C17      C      0.999660000000     0.600980000000     0.602230000000     0.584594   
C18      C      0.011730000000     0.411140000000     0.606470000000     0.655925   
C19      C      0.908820000000     0.600350000000     0.509550000000     0.598496   
C20      C      0.099200000000     0.603020000000     0.499690000000     0.704016   
C21      C      0.098230000000     0.411180000000     0.495770000000     0.720609   
C22      C      0.907480000000     0.408610000000     0.502580000000     0.697271   
C23      C      0.909250000000     0.508410000000     0.602770000000     0.581215   
C24      C      0.100110000000     0.502110000000     0.605610000000     0.660191   
C25      C      0.599440000000     0.015940000000     0.415100000000     0.721751   
C26      C      0.407220000000     0.007220000000     0.410330000000     0.674413   
C27      C      0.505210000000     0.906750000000     0.414120000000     0.679956   
C28      C      0.517760000000     0.098580000000     0.410980000000     0.748688   
C29      C      0.407540000000     0.008220000000     0.601240000000     0.58099    
C30      C      0.597150000000     0.011880000000     0.606820000000     0.648959   
C31      C      0.407230000000     0.912600000000     0.511250000000     0.5949     
C32      C      0.407340000000     0.103050000000     0.494340000000     0.705211   
C33      C      0.598400000000     0.099760000000     0.493810000000     0.712562   
C34      C      0.597500000000     0.907770000000     0.505120000000     0.685649   
C35      C      0.495660000000     0.914320000000     0.604460000000     0.573959   
C36      C      0.506040000000     0.105400000000     0.602140000000     0.662664   
C37      C      0.409750000000     0.409170000000     0.997120000000     0.722155   
C38      C      0.407410000000     0.601970000000     0.009100000000     0.672052   
C39      C      0.409860000000     0.501490000000     0.107920000000     0.677735   
C40      C      0.408010000000     0.491710000000     0.915190000000     0.72708    
C41      C      0.597080000000     0.601460000000     0.010020000000     0.575772   
C42      C      0.601550000000     0.410430000000     0.999940000000     0.66365    
C43      C      0.507610000000     0.599070000000     0.103950000000     0.605974   
C44      C      0.494300000000     0.603490000000     0.913170000000     0.693779   
C45      C      0.490410000000     0.411490000000     0.913010000000     0.718841   
C46      C      0.499180000000     0.408250000000     0.104390000000     0.690348   
C47      C      0.600150000000     0.505310000000     0.100810000000     0.591271   
C48      C      0.598810000000     0.502040000000     0.910140000000     0.651712   
C49      C      0.521410000000     0.150200000000     0.309040000000    -0.140702   
C50      C      0.502350000000     0.337250000000     0.123850000000     0.115385   
C51      C      0.497910000000     0.389070000000     0.175380000000     0.115538   
C52      C      0.506180000000     0.306720000000     0.154100000000    -0.116946   
C53      C      0.539860000000     0.252110000000     0.221850000000    -0.0330898  
C54      C      0.545140000000     0.221810000000     0.252140000000    -0.0312381  
C55      C      0.513240000000     0.285820000000     0.228590000000    -0.00911941 
C56      C      0.502160000000     0.359430000000     0.206370000000    -0.10844    
C57      C      0.524360000000     0.224810000000     0.290040000000    -0.0151625  
C58      C      0.532530000000     0.199980000000     0.362780000000    -0.124284   
C59      C      0.498460000000     0.258840000000     0.297230000000    -0.029775   
C60      C      0.530570000000     0.168180000000     0.391780000000     0.126014   
C61      C      0.518150000000     0.118870000000     0.338750000000     0.19904    
C62      C      0.492780000000     0.288880000000     0.266790000000    -0.0327016  
C63      C      0.506980000000     0.317660000000     0.195990000000     0.0661449  
C64      C      0.527300000000     0.191200000000     0.320960000000     0.0810793  
C65      C      0.516930000000     0.650230000000     0.205230000000    -0.13326    
C66      C      0.500580000000     0.887280000000     0.343510000000     0.113519   
C67      C      0.509040000000     0.835700000000     0.394820000000     0.10438    
C68      C      0.499620000000     0.857280000000     0.312680000000    -0.119018   
C69      C      0.521590000000     0.790980000000     0.251450000000    -0.0329099  
C70      C      0.520880000000     0.760990000000     0.220500000000    -0.0318777  
C71      C      0.503380000000     0.783270000000     0.290150000000    -0.0113082  
C72      C      0.508730000000     0.804860000000     0.364620000000    -0.115022   
C73      C      0.502450000000     0.722430000000     0.227700000000    -0.0132139  
C74      C      0.493270000000     0.699100000000     0.154680000000    -0.116401   
C75      C      0.484340000000     0.714510000000     0.266270000000    -0.0321856  
C76      C      0.495760000000     0.668330000000     0.124640000000     0.1119     
C77      C      0.520650000000     0.620220000000     0.174270000000     0.198168   
C78      C      0.484580000000     0.744700000000     0.297110000000    -0.0325701  
C79      C      0.503880000000     0.815460000000     0.322910000000     0.0649788  
C80      C      0.503500000000     0.690020000000     0.195520000000     0.0771964  
C81      C      0.491430000000     0.657350000000     0.812330000000    -0.136565   
C82      C      0.486370000000     0.896890000000     0.675500000000     0.0988367  
C83      C      0.492280000000     0.843680000000     0.625630000000     0.101236   
C84      C      0.482890000000     0.867620000000     0.707090000000    -0.0998857  
C85      C      0.501800000000     0.800100000000     0.769570000000    -0.03378    
C86      C      0.501200000000     0.769590000000     0.800220000000    -0.0295268  
C87      C      0.482160000000     0.793580000000     0.731340000000    -0.00644742 
C88      C      0.489040000000     0.813600000000     0.656480000000    -0.107012   
C89      C      0.481110000000     0.731690000000     0.793370000000    -0.0136527  
C90      C      0.479300000000     0.706050000000     0.866800000000    -0.116129   
C91      C      0.460730000000     0.725490000000     0.755550000000    -0.030611   
C92      C      0.483270000000     0.673990000000     0.895510000000     0.111422   
C93      C      0.496410000000     0.625840000000     0.841670000000     0.195873   
C94      C      0.461170000000     0.756050000000     0.724980000000    -0.0343355  
C95      C      0.484490000000     0.825310000000     0.697930000000     0.059373   
C96      C      0.483250000000     0.697930000000     0.824610000000     0.0767116  
C97      C      0.496530000000     0.207450000000     0.652430000000    -0.136503   
C98      C      0.482940000000     0.392910000000     0.842220000000     0.113748   
C99      C      0.488450000000     0.340640000000     0.893220000000     0.114232   
C100     C      0.483260000000     0.363160000000     0.811010000000    -0.120699   
C101     C      0.514060000000     0.297670000000     0.752140000000    -0.0320801  
C102     C      0.518420000000     0.267570000000     0.721550000000    -0.0319916  
C103     C      0.491300000000     0.289380000000     0.788190000000    -0.0122975  
C104     C      0.489190000000     0.310130000000     0.862800000000    -0.121706   
C105     C      0.500470000000     0.228400000000     0.726480000000    -0.012613   
C106     C      0.512960000000     0.155790000000     0.703050000000    -0.112458   
C107     C      0.477920000000     0.219930000000     0.762520000000    -0.0318506  
C108     C      0.513870000000     0.126190000000     0.671800000000     0.109322   
C109     C      0.496380000000     0.177000000000     0.621650000000     0.19776    
C110     C      0.473240000000     0.250130000000     0.792980000000    -0.0323675  
C111     C      0.487410000000     0.321230000000     0.821040000000     0.0671297  
C112     C      0.504040000000     0.196880000000     0.693530000000     0.0767547  
C113     C      0.856890000000     0.306230000000     0.499440000000    -0.138102   
C114     C      0.617820000000     0.170240000000     0.484200000000     0.11338    
C115     C      0.669320000000     0.118420000000     0.488320000000     0.111779   
C116     C      0.647950000000     0.201010000000     0.481650000000    -0.118543   
C117     C      0.720470000000     0.257280000000     0.458380000000    -0.0337989  
C118     C      0.750860000000     0.287990000000     0.460390000000    -0.0315887  
C119     C      0.722070000000     0.222800000000     0.484780000000    -0.0115371  
C120     C      0.700210000000     0.148430000000     0.486160000000    -0.120228   
C121     C      0.783330000000     0.284970000000     0.489050000000    -0.0142086  
C122     C      0.806670000000     0.359270000000     0.487420000000    -0.119519   
C123     C      0.784490000000     0.250630000000     0.515710000000    -0.0314503  
C124     C      0.837710000000     0.388970000000     0.491670000000     0.108587   
C125     C      0.887310000000     0.336490000000     0.504750000000     0.196519   
C126     C      0.754400000000     0.219890000000     0.513450000000    -0.033094   
C127     C      0.689700000000     0.190340000000     0.483500000000     0.0661602  
C128     C      0.816030000000     0.317270000000     0.491420000000     0.0765003  
C129     C      0.855820000000     0.701770000000     0.510260000000    -0.132439   
C130     C      0.615540000000     0.836330000000     0.504620000000     0.107264   
C131     C      0.668040000000     0.887310000000     0.504360000000     0.113832   
C132     C      0.645070000000     0.804910000000     0.505170000000    -0.115326   
C133     C      0.714730000000     0.747390000000     0.532000000000    -0.0335831  
C134     C      0.745520000000     0.717130000000     0.533510000000    -0.0317034  
C135     C      0.718980000000     0.782020000000     0.506080000000    -0.0109184  
C136     C      0.698340000000     0.856680000000     0.504710000000    -0.117936   
C137     C      0.781150000000     0.720870000000     0.509080000000    -0.0134034  
C138     C      0.805820000000     0.647300000000     0.513030000000    -0.117004   
C139     C      0.784940000000     0.755150000000     0.482630000000    -0.0317253  
C140     C      0.837890000000     0.618490000000     0.512820000000     0.102805   
C141     C      0.887510000000     0.672410000000     0.509420000000     0.185551   
C142     C      0.754290000000     0.785390000000     0.481220000000    -0.033202   
C143     C      0.687040000000     0.814900000000     0.505290000000     0.0655836  
C144     C      0.814590000000     0.689520000000     0.511220000000     0.0738099  
C145     C      0.356710000000     0.204100000000     0.479160000000    -0.137402   
C146     C      0.116980000000     0.340180000000     0.490530000000     0.114541   
C147     C      0.168570000000     0.391940000000     0.486330000000     0.114591   
C148     C      0.146840000000     0.309240000000     0.488220000000    -0.120903   
C149     C      0.219170000000     0.254890000000     0.513780000000    -0.0334005  
C150     C      0.249910000000     0.224680000000     0.514430000000    -0.0306492  
C151     C      0.220710000000     0.287370000000     0.485030000000    -0.0112534  
C152     C      0.199200000000     0.361730000000     0.483480000000    -0.118851   
C153     C      0.282740000000     0.226030000000     0.486090000000    -0.0141016  
C154     C      0.305910000000     0.152520000000     0.494920000000    -0.121122   
C155     C      0.283980000000     0.258410000000     0.457060000000    -0.0302452  
C156     C      0.337030000000     0.122820000000     0.496050000000     0.114253   
C157     C      0.387350000000     0.173500000000     0.479180000000     0.204944   
C158     C      0.253440000000     0.288870000000     0.456710000000    -0.0329123  
C159     C      0.188510000000     0.319850000000     0.485160000000     0.0672851  
C160     C      0.315550000000     0.193870000000     0.486980000000     0.0793975  
C161     C      0.200040000000     0.654900000000     0.491880000000    -0.137612   
C162     C      0.336190000000     0.893960000000     0.515330000000     0.0997085  
C163     C      0.387290000000     0.841710000000     0.511120000000     0.100666   
C164     C      0.305070000000     0.864100000000     0.515150000000    -0.111043   
C165     C      0.249170000000     0.790480000000     0.536680000000    -0.0347649  
C166     C      0.218840000000     0.759850000000     0.534260000000    -0.0303075  
C167     C      0.282810000000     0.790160000000     0.509400000000    -0.00946573 
C168     C      0.356960000000     0.811150000000     0.510370000000    -0.111945   
C169     C      0.221310000000     0.728500000000     0.504210000000    -0.0146028  
C170     C      0.147680000000     0.704790000000     0.508090000000    -0.120366   
C171     C      0.254790000000     0.728690000000     0.476580000000    -0.0303574  
C172     C      0.118160000000     0.673520000000     0.505750000000     0.112922   
C173     C      0.169690000000     0.624230000000     0.488390000000     0.203776   
C174     C      0.285280000000     0.759010000000     0.479320000000    -0.034441   
C175     C      0.315320000000     0.822220000000     0.512020000000     0.0614069  
C176     C      0.189300000000     0.695620000000     0.501730000000     0.0786635  
C177     C      0.653360000000     0.495650000000     0.200850000000    -0.131124   
C178     C      0.888900000000     0.509960000000     0.340980000000     0.111736   
C179     C      0.836520000000     0.499710000000     0.390910000000     0.103249   
C180     C      0.859520000000     0.512150000000     0.309580000000    -0.118042   
C181     C      0.794020000000     0.493730000000     0.245940000000    -0.0334663  
C182     C      0.764110000000     0.495190000000     0.214900000000    -0.0323502  
C183     C      0.785830000000     0.509800000000     0.285530000000    -0.0109589  
C184     C      0.806320000000     0.501210000000     0.360140000000    -0.113811   
C185     C      0.725130000000     0.512240000000     0.222830000000    -0.0127883  
C186     C      0.700320000000     0.522390000000     0.150110000000    -0.113765   
C187     C      0.716910000000     0.528610000000     0.262150000000    -0.0319414  
C188     C      0.669180000000     0.519470000000     0.120450000000     0.104448   
C189     C      0.623100000000     0.491450000000     0.170250000000     0.201141   
C190     C      0.746970000000     0.527660000000     0.293050000000    -0.03259    
C191     C      0.817560000000     0.507730000000     0.318810000000     0.0638509  
C192     C      0.692360000000     0.510920000000     0.190920000000     0.0760797  
C193     C      0.359170000000     0.497720000000     0.210170000000    -0.135502   
C194     C      0.117980000000     0.482860000000     0.343710000000     0.11426    
C195     C      0.169230000000     0.482820000000     0.395850000000     0.12124    
C196     C      0.148300000000     0.480710000000     0.313060000000    -0.120102   
C197     C      0.220980000000     0.457810000000     0.256480000000    -0.0346835  
C198     C      0.251890000000     0.460210000000     0.226360000000    -0.0316576  
C199     C      0.222850000000     0.482640000000     0.292050000000    -0.0109582  
C200     C      0.200260000000     0.481030000000     0.366040000000    -0.117556   
C201     C      0.285180000000     0.487760000000     0.230990000000    -0.0147317  
C202     C      0.308670000000     0.488570000000     0.156890000000    -0.124054   
C203     C      0.286680000000     0.512810000000     0.266490000000    -0.0305136  
C204     C      0.339780000000     0.492920000000     0.127370000000     0.113509   
C205     C      0.389750000000     0.503180000000     0.180030000000     0.188922   
C206     C      0.256060000000     0.510130000000     0.296670000000    -0.0333111  
C207     C      0.190050000000     0.480790000000     0.324050000000     0.0671819  
C208     C      0.318100000000     0.490830000000     0.198940000000     0.0759138  
C209     C      0.201680000000     0.500740000000     0.657180000000    -0.136427   
C210     C      0.337210000000     0.482800000000     0.896970000000     0.112123   
C211     C      0.388130000000     0.486380000000     0.844590000000     0.115812   
C212     C      0.306050000000     0.480880000000     0.867160000000    -0.12005    
C213     C      0.249300000000     0.458410000000     0.794100000000    -0.0337779  
C214     C      0.219010000000     0.460580000000     0.763330000000    -0.0317677  
C215     C      0.283600000000     0.484930000000     0.793010000000    -0.0115738  
C216     C      0.357800000000     0.484870000000     0.814100000000    -0.120047   
C217     C      0.222240000000     0.489580000000     0.731060000000    -0.0132977  
C218     C      0.148490000000     0.487530000000     0.706920000000    -0.115559   
C219     C      0.256300000000     0.516500000000     0.730570000000    -0.0311146  
C220     C      0.119140000000     0.491660000000     0.675620000000     0.102544   
C221     C      0.171680000000     0.505950000000     0.626470000000     0.195434   
C222     C      0.286650000000     0.514060000000     0.761000000000    -0.0329241  
C223     C      0.316160000000     0.482890000000     0.825180000000     0.0666584  
C224     C      0.190390000000     0.492060000000     0.697950000000     0.0749747  
C225     C      0.855710000000     0.508760000000     0.703720000000    -0.130137   
C226     C      0.616550000000     0.500950000000     0.838690000000     0.116752   
C227     C      0.669240000000     0.502860000000     0.889320000000     0.101884   
C228     C      0.645860000000     0.503150000000     0.807170000000    -0.11316    
C229     C      0.715410000000     0.487020000000     0.746560000000    -0.0333414  
C230     C      0.745800000000     0.489530000000     0.716050000000    -0.0312635  
C231     C      0.719610000000     0.508950000000     0.783850000000    -0.00916424 
C232     C      0.699350000000     0.504770000000     0.858600000000    -0.109978   
C233     C      0.781200000000     0.513770000000     0.722270000000    -0.0131537  
C234     C      0.806470000000     0.517440000000     0.649180000000    -0.11635    
C235     C      0.785150000000     0.536190000000     0.759190000000    -0.0315049  
C236     C      0.838590000000     0.515610000000     0.620560000000     0.104711   
C237     C      0.887390000000     0.505800000000     0.674450000000     0.183159   
C238     C      0.754650000000     0.533960000000     0.789540000000    -0.0328127  
C239     C      0.687880000000     0.505530000000     0.816890000000     0.0642094  
C240     C      0.814870000000     0.514010000000     0.691280000000     0.0738751  
C241     C      0.648200000000     0.704080000000     0.008530000000    -0.131333   
C242     C      0.889140000000     0.840350000000     0.003050000000     0.0960427  
C243     C      0.837400000000     0.891880000000     0.999670000000     0.106301   
C244     C      0.859150000000     0.809250000000     0.003170000000    -0.104479   
C245     C      0.789310000000     0.749650000000     0.981720000000    -0.0273347  
C246     C      0.758740000000     0.719090000000     0.983360000000    -0.0215109  
C247     C      0.784780000000     0.786920000000     0.003690000000    -0.0133532  
C248     C      0.806630000000     0.861560000000     0.999910000000    -0.0950614  
C249     C      0.722860000000     0.724930000000     0.007090000000    -0.0220477  
C250     C      0.699320000000     0.650640000000     0.009500000000    -0.113982   
C251     C      0.718560000000     0.762080000000     0.029320000000    -0.028975   
C252     C      0.667800000000     0.621120000000     0.010610000000     0.0980592  
C253     C      0.617060000000     0.674000000000     0.010100000000     0.1856     
C254     C      0.749030000000     0.792650000000     0.027580000000    -0.0351804  
C255     C      0.817230000000     0.819600000000     0.002050000000     0.0507811  
C256     C      0.689800000000     0.692780000000     0.008330000000     0.0738272  
C257     C      0.840940000000     0.182240000000     0.968320000000    -0.131249   
C258     C      0.621710000000     0.339790000000     0.994680000000     0.112692   
C259     C      0.672590000000     0.392270000000     0.999320000000     0.109509   
C260     C      0.652230000000     0.309390000000     0.993940000000    -0.11367    
C261     C      0.757730000000     0.291190000000     0.027960000000    -0.0504131  
C262     C      0.788280000000     0.260870000000     0.029820000000    -0.0224098  
C263     C      0.726480000000     0.288970000000     0.998020000000     0.00661772 
C264     C      0.703800000000     0.362670000000     0.999140000000    -0.101321   
C265     C      0.788390000000     0.228070000000     0.001440000000    -0.0278608  
C266     C      0.829110000000     0.176510000000     0.041740000000    -0.120037   
C267     C      0.757390000000     0.226040000000     0.971210000000    -0.0145785  
C268     C      0.858000000000     0.144700000000     0.043340000000     0.123508   
C269     C      0.870210000000     0.150580000000     0.970910000000     0.213508   
C270     C      0.726530000000     0.256110000000     0.969680000000    -0.0426307  
C271     C      0.693750000000     0.320730000000     0.996720000000     0.0583026  
C272     C      0.820290000000     0.195550000000     0.003920000000     0.0763241  
C273     C      0.149600000000     0.808320000000     0.998310000000    -0.127569   
C274     C      0.387760000000     0.672660000000     0.013560000000     0.104667   
C275     C      0.336500000000     0.620700000000     0.007180000000     0.112241   
C276     C      0.357570000000     0.703280000000     0.014950000000    -0.117452   
C277     C      0.282920000000     0.754690000000     0.043050000000    -0.0322993  
C278     C      0.252200000000     0.784930000000     0.043140000000    -0.0308273  
C279     C      0.283780000000     0.724420000000     0.012010000000    -0.0209513  
C280     C      0.305570000000     0.650620000000     0.007750000000    -0.122153   
C281     C      0.222140000000     0.785750000000     0.011840000000    -0.0209121  
C282     C      0.198240000000     0.858710000000     0.022780000000    -0.122821   
C283     C      0.223570000000     0.755630000000     0.980500000000    -0.0235629  
C284     C      0.167410000000     0.888670000000     0.020950000000     0.119801   
C285     C      0.119610000000     0.839230000000     0.995150000000     0.210444   
C286     C      0.253860000000     0.725090000000     0.980810000000    -0.023927   
C287     C      0.316050000000     0.692340000000     0.011810000000     0.0678325  
C288     C      0.189480000000     0.817910000000     0.011590000000     0.0727922  
C289     C      0.182860000000     0.172110000000     0.042540000000    -0.133692   
C290     C      0.338850000000     0.389200000000     0.996400000000     0.122551   
C291     C      0.390610000000     0.338260000000     0.988070000000     0.109189   
C292     C      0.308220000000     0.358730000000     0.996140000000    -0.12134    
C293     C      0.286590000000     0.250440000000     0.966760000000    -0.0424756  
C294     C      0.256270000000     0.219570000000     0.969450000000    -0.0176044  
C295     C      0.286700000000     0.284000000000     0.994440000000     0.0023991  
C296     C      0.360650000000     0.307020000000     0.987150000000    -0.116612   
C297     C      0.225790000000     0.221180000000     0.000330000000    -0.0274278  
C298     C      0.172020000000     0.174340000000     0.969040000000    -0.117561   
C299     C      0.226050000000     0.254680000000     0.028030000000    -0.0242332  
C300     C      0.140040000000     0.145560000000     0.973560000000     0.136237   
C301     C      0.150620000000     0.143400000000     0.046080000000     0.196616   
C302     C      0.255940000000     0.285750000000     0.024990000000    -0.0494829  
C303     C      0.318880000000     0.316950000000     0.992050000000     0.0622935  
C304     C      0.193650000000     0.188310000000     0.003840000000     0.0723203  
C305     C      0.648080000000     0.011120000000     0.708950000000    -0.135857   
C306     C      0.889010000000     0.006220000000     0.841890000000     0.108484   
C307     C      0.837580000000     0.002960000000     0.893810000000     0.110512   
C308     C      0.858890000000     0.007540000000     0.811190000000    -0.104095   
C309     C      0.788060000000     0.036220000000     0.756610000000    -0.0326734  
C310     C      0.757200000000     0.038190000000     0.726570000000    -0.0283417  
C311     C      0.784750000000     0.008460000000     0.789860000000    -0.0150538  
C312     C      0.806670000000     0.004010000000     0.863870000000    -0.107547   
C313     C      0.722440000000     0.012380000000     0.729150000000    -0.0234003  
C314     C      0.698930000000     0.017650000000     0.655570000000    -0.124736   
C315     C      0.719410000000     0.984370000000     0.762230000000    -0.0208858  
C316     C      0.667460000000     0.016940000000     0.626210000000     0.11432    
C317     C      0.617030000000     0.009600000000     0.678990000000     0.185326   
C318     C      0.750150000000     0.982520000000     0.792290000000    -0.0253667  
C319     C      0.817180000000     0.006640000000     0.822020000000     0.0664056  
C320     C      0.689430000000     0.014310000000     0.697480000000     0.0788665  
C321     C      0.354560000000     0.012920000000     0.702190000000    -0.133158   
C322     C      0.116180000000     0.019390000000     0.837900000000     0.105219   
C323     C      0.168800000000     0.015210000000     0.888560000000     0.112422   
C324     C      0.145480000000     0.019360000000     0.806420000000    -0.111256   
C325     C      0.214370000000     0.989420000000     0.749260000000    -0.0255526  
C326     C      0.244810000000     0.987570000000     0.718770000000    -0.0226408  
C327     C      0.218790000000     0.016160000000     0.783180000000    -0.0186867  
C328     C      0.198960000000     0.015650000000     0.857820000000    -0.117457   
C329     C      0.280070000000     0.012670000000     0.721490000000    -0.0222999  
C330     C      0.304610000000     0.005380000000     0.648150000000    -0.118053   
C331     C      0.283810000000     0.040150000000     0.755000000000    -0.0305184  
C332     C      0.336640000000     0.004710000000     0.619330000000     0.102816   
C333     C      0.386110000000     0.013360000000     0.672820000000     0.18355    
C334     C      0.253650000000     0.041650000000     0.785630000000    -0.0330552  
C335     C      0.187340000000     0.017150000000     0.816230000000     0.0660286  
C336     C      0.313390000000     0.009890000000     0.690140000000     0.0754357  
C337     C      0.150290000000     0.020640000000     0.202920000000    -0.140515   
C338     C      0.389240000000     0.004270000000     0.338960000000     0.104288   
C339     C      0.337060000000     0.013150000000     0.389430000000     0.104861   
C340     C      0.359930000000     0.006120000000     0.307400000000    -0.112514   
C341     C      0.292590000000     0.036610000000     0.248340000000    -0.0337229  
C342     C      0.261990000000     0.038720000000     0.217940000000    -0.0287176  
C343     C      0.286480000000     0.012890000000     0.284200000000    -0.0179705  
C344     C      0.306960000000     0.014780000000     0.358700000000    -0.114852   
C345     C      0.224750000000     0.016970000000     0.222730000000    -0.0242942  
C346     C      0.200740000000     0.019130000000     0.148900000000    -0.124389   
C347     C      0.219140000000     0.992640000000     0.258300000000    -0.0218689  
C348     C      0.168880000000     0.018870000000     0.119890000000     0.127585   
C349     C      0.118770000000     0.019460000000     0.173420000000     0.201595   
C350     C      0.249520000000     0.990770000000     0.288720000000    -0.0263104  
C351     C      0.318240000000     0.011390000000     0.317120000000     0.0644159  
C352     C      0.191640000000     0.019470000000     0.191040000000     0.0837561  
C353     C      0.804850000000     0.015250000000     0.156030000000    -0.137529   
C354     C      0.670390000000     0.023140000000     0.396830000000     0.111126   
C355     C      0.619490000000     0.020180000000     0.344450000000     0.113056   
C356     C      0.701620000000     0.024530000000     0.367080000000    -0.121025   
C357     C      0.760220000000     0.045510000000     0.296030000000    -0.0330297  
C358     C      0.790620000000     0.043790000000     0.265340000000    -0.0309384  
C359     C      0.724280000000     0.021350000000     0.292820000000    -0.0199922  
C360     C      0.649870000000     0.021580000000     0.313970000000    -0.119425   
C361     C      0.785670000000     0.017930000000     0.230790000000    -0.0232711  
C362     C      0.859200000000     0.015590000000     0.206170000000    -0.124034   
C363     C      0.750020000000     0.993380000000     0.227980000000    -0.0229669  
C364     C      0.887900000000     0.012650000000     0.174090000000     0.111813   
C365     C      0.834030000000     0.011780000000     0.124360000000     0.187083   
C366     C      0.719770000000     0.995060000000     0.258550000000    -0.0248012  
C367     C      0.691590000000     0.023000000000     0.325030000000     0.066834   
C368     C      0.817080000000     0.016660000000     0.197330000000     0.0772216  
C369     C      0.972900000000     0.184590000000     0.839660000000    -0.121904   
C370     C      0.016170000000     0.340640000000     0.627010000000     0.117179   
C371     C      0.018720000000     0.393840000000     0.677380000000     0.107494   
C372     C      0.017900000000     0.310630000000     0.657840000000    -0.1165     
C373     C      0.043060000000     0.255800000000     0.729910000000    -0.0325089  
C374     C      0.041290000000     0.225890000000     0.760840000000    -0.0310322  
C375     C      0.018560000000     0.291470000000     0.732560000000    -0.018549   
C376     C      0.020370000000     0.364720000000     0.708920000000    -0.112655   
C377     C      0.014850000000     0.231070000000     0.794790000000    -0.0203619  
C378     C      0.047080000000     0.179940000000     0.842200000000    -0.120351   
C379     C      0.990670000000     0.266910000000     0.797650000000    -0.0235428  
C380     C      0.043520000000     0.148140000000     0.870660000000     0.119452   
C381     C      0.969600000000     0.151070000000     0.867480000000     0.203422   
C382     C      0.992570000000     0.296910000000     0.766830000000    -0.0239114  
C383     C      0.019340000000     0.322630000000     0.699320000000     0.0680148  
C384     C      0.011610000000     0.198440000000     0.826440000000     0.0714448  
C385     C      0.998400000000     0.861880000000     0.808500000000    -0.102997   
C386     C      0.993100000000     0.620620000000     0.672980000000     0.0978971  
C387     C      0.998060000000     0.672270000000     0.621360000000     0.112906   
C388     C      0.990790000000     0.650830000000     0.703780000000    -0.102531   
C389     C      0.964650000000     0.722950000000     0.759360000000    -0.0333497  
C390     C      0.964340000000     0.753730000000     0.789830000000    -0.0330537  
C391     C      0.992090000000     0.725320000000     0.725780000000     0.000327205
C392     C      0.996210000000     0.703270000000     0.651430000000    -0.106769   
C393     C      0.991620000000     0.787480000000     0.787570000000     0.00145087 
C394     C      0.985860000000     0.811740000000     0.861480000000    -0.103153   
C395     C      0.019400000000     0.789390000000     0.754190000000    -0.0398731  
C396     C      0.988170000000     0.843290000000     0.890990000000     0.108436   
C397     C      0.001710000000     0.892840000000     0.838600000000     0.166633   
C398     C      0.019480000000     0.758870000000     0.723660000000    -0.0402516  
C399     C      0.992690000000     0.692750000000     0.693270000000     0.0601888  
C400     C      0.991400000000     0.820730000000     0.819600000000     0.0634844  
C401     C      0.008810000000     0.806800000000     0.153380000000    -0.136636   
C402     C      0.005790000000     0.620900000000     0.340870000000     0.113212   
C403     C      0.010980000000     0.672740000000     0.392370000000     0.110003   
C404     C      0.005200000000     0.650990000000     0.310020000000    -0.120791   
C405     C      0.979690000000     0.720740000000     0.253630000000    -0.0243585  
C406     C      0.978400000000     0.751220000000     0.223190000000    -0.0247687  
C407     C      0.005140000000     0.725510000000     0.288460000000    -0.0195555  
C408     C      0.009980000000     0.703570000000     0.362420000000    -0.114749   
C409     C      0.002110000000     0.787270000000     0.227260000000    -0.0210404  
C410     C      0.997950000000     0.860490000000     0.203400000000    -0.11525    
C411     C      0.027090000000     0.792430000000     0.262220000000    -0.0317448  
C412     C      0.999750000000     0.889610000000     0.171780000000     0.124882   
C413     C      0.011890000000     0.836650000000     0.122290000000     0.188889   
C414     C      0.028810000000     0.761740000000     0.292410000000    -0.031616   
C415     C      0.006830000000     0.692940000000     0.320650000000     0.0675996  
C416     C      0.002230000000     0.818620000000     0.194210000000     0.0712147  
C417     C      0.023500000000     0.201110000000     0.157100000000    -0.140226   
C418     C      0.018250000000     0.337590000000     0.397440000000     0.114159   
C419     C      0.022860000000     0.388430000000     0.344930000000     0.110836   
C420     C      0.018840000000     0.306090000000     0.367900000000    -0.120531   
C421     C      0.991950000000     0.250400000000     0.296190000000    -0.0257516  
C422     C      0.990430000000     0.220070000000     0.265340000000    -0.022977   
C423     C      0.020730000000     0.282850000000     0.293990000000    -0.0197752  
C424     C      0.024070000000     0.357630000000     0.314620000000    -0.121479   
C425     C      0.017880000000     0.221320000000     0.231720000000    -0.021987   
C426     C      0.007250000000     0.148220000000     0.206310000000    -0.119605   
C427     C      0.047260000000     0.253370000000     0.230180000000    -0.0300047  
C428     C      0.006970000000     0.119230000000     0.174210000000     0.115855   
C429     C      0.024310000000     0.171340000000     0.125740000000     0.203856   
C430     C      0.048460000000     0.283870000000     0.260740000000    -0.0327205  
C431     C      0.021410000000     0.315900000000     0.325910000000     0.0671272  
C432     C      0.015750000000     0.189830000000     0.198030000000     0.0800237  
H1       H      0.973680000000     0.977090000000     0.037350000000    -1.2385     
H2       H      0.028180000000     0.031340000000     0.031540000000    -1.06069    
H3       H      0.966420000000     0.076470000000     0.971290000000    -0.561723   
H4       H      0.072410000000     0.970000000000     0.968680000000    -0.51482    
H5       H      0.974430000000     0.534470000000     0.477230000000    -1.23525    
H6       H      0.028510000000     0.480840000000     0.484200000000    -1.07926    
H7       H      0.966570000000     0.435780000000     0.546510000000    -0.506164   
H8       H      0.073580000000     0.543960000000     0.544950000000    -0.545481   
H9       H      0.473710000000     0.976410000000     0.477240000000    -1.25824    
H10      H      0.528200000000     0.029950000000     0.483160000000    -1.06502    
H11      H      0.571560000000     0.968790000000     0.546930000000    -0.494377   
H12      H      0.465210000000     0.077810000000     0.541850000000    -0.530435   
H13      H      0.473140000000     0.534000000000     0.038520000000    -1.24863    
H14      H      0.478880000000     0.480610000000     0.983850000000    -1.05316    
H15      H      0.541980000000     0.435150000000     0.044300000000    -0.492754   
H16      H      0.538890000000     0.544000000000     0.938060000000    -0.540135   
H17      H      0.494750000000     0.421010000000     0.185010000000     0.0457873  
H18      H      0.534860000000     0.176900000000     0.423800000000     0.028435   
H19      H      0.471560000000     0.313980000000     0.272910000000     0.0413514  
H20      H      0.565480000000     0.195980000000     0.245950000000     0.0392957  
H21      H      0.537660000000     0.231410000000     0.373140000000     0.0662377  
H22      H      0.556830000000     0.249160000000     0.193220000000     0.0388039  
H23      H      0.516220000000     0.142790000000     0.276800000000     0.0815429  
H24      H      0.502760000000     0.369530000000     0.238240000000     0.0678501  
H25      H      0.508630000000     0.274730000000     0.144570000000     0.0574214  
H26      H      0.481510000000     0.261520000000     0.325930000000     0.0442552  
H27      H      0.502710000000     0.327370000000     0.091870000000     0.00947889 
H28      H      0.512970000000     0.826130000000     0.426660000000     0.0175154  
H29      H      0.485850000000     0.676560000000     0.093750000000     0.027025   
H30      H      0.469630000000     0.737920000000     0.326230000000     0.0382576  
H31      H      0.535660000000     0.767590000000     0.191230000000     0.0412974  
H32      H      0.482710000000     0.729680000000     0.146050000000     0.0623902  
H33      H      0.537060000000     0.819970000000     0.245210000000     0.0387885  
H34      H      0.527070000000     0.643200000000     0.236350000000     0.0841636  
H35      H      0.512810000000     0.772980000000     0.373970000000     0.0580538  
H36      H      0.494970000000     0.866980000000     0.281010000000     0.0596475  
H37      H      0.469690000000     0.685050000000     0.272440000000     0.0434886  
H38      H      0.496960000000     0.919180000000     0.333910000000     0.0155737  
H39      H      0.496190000000     0.832990000000     0.594150000000     0.0203365  
H40      H      0.479150000000     0.682040000000     0.927750000000     0.0305855  
H41      H      0.444990000000     0.750220000000     0.696320000000     0.0395205  
H42      H      0.517680000000     0.775160000000     0.828760000000     0.0426119  
H43      H      0.472760000000     0.737030000000     0.877690000000     0.0645192  
H44      H      0.518770000000     0.828330000000     0.775430000000     0.0437907  
H45      H      0.496370000000     0.650390000000     0.779960000000     0.0812293  
H46      H      0.490980000000     0.781320000000     0.647830000000     0.0569968  
H47      H      0.478600000000     0.878240000000     0.738510000000     0.065165   
H48      H      0.444460000000     0.696880000000     0.749520000000     0.0405034  
H49      H      0.484600000000     0.929160000000     0.684190000000     0.0492037  
H50      H      0.490870000000     0.330530000000     0.925050000000     0.0144897  
H51      H      0.521770000000     0.094900000000     0.680810000000     0.042554   
H52      H      0.455000000000     0.242870000000     0.820020000000     0.0373431  
H53      H      0.536260000000     0.274780000000     0.694200000000     0.0414553  
H54      H      0.519430000000     0.146520000000     0.734540000000     0.0670315  
H55      H      0.529110000000     0.327230000000     0.747780000000     0.0386454  
H56      H      0.488200000000     0.238920000000     0.644490000000     0.0828976  
H57      H      0.492620000000     0.278150000000     0.872080000000     0.058306   
H58      H      0.480660000000     0.373090000000     0.779180000000     0.0601528  
H59      H      0.463170000000     0.190180000000     0.766800000000     0.042239   
H60      H      0.480450000000     0.425020000000     0.832930000000     0.0191981  
H61      H      0.678980000000     0.086440000000     0.490900000000     0.0137733  
H62      H      0.828700000000     0.421010000000     0.487810000000     0.0179283  
H63      H      0.756000000000     0.194170000000     0.534820000000     0.0388685  
H64      H      0.749210000000     0.313760000000     0.439120000000     0.0376608  
H65      H      0.775370000000     0.369380000000     0.481680000000     0.0594915  
H66      H      0.696010000000     0.260250000000     0.435810000000     0.0384633  
H67      H      0.865280000000     0.273980000000     0.502820000000     0.0809231  
H68      H      0.732190000000     0.138830000000     0.486970000000     0.0576073  
H69      H      0.638490000000     0.233070000000     0.479750000000     0.0620512  
H70      H      0.808350000000     0.247710000000     0.538900000000     0.0412505  
H71      H      0.585910000000     0.180130000000     0.483740000000     0.0251042  
H72      H      0.678300000000     0.919210000000     0.504220000000     0.0128979  
H73      H      0.829040000000     0.586200000000     0.514100000000     0.0190653  
H74      H      0.758100000000     0.811280000000     0.460360000000     0.0390662  
H75      H      0.741830000000     0.691300000000     0.554470000000     0.0381053  
H76      H      0.774270000000     0.636380000000     0.513680000000     0.0582465  
H77      H      0.688050000000     0.744150000000     0.551830000000     0.0388517  
H78      H      0.863700000000     0.734330000000     0.509340000000     0.0803435  
H79      H      0.730470000000     0.865780000000     0.505200000000     0.0598392  
H80      H      0.635020000000     0.772970000000     0.505070000000     0.0581728  
H81      H      0.811530000000     0.758510000000     0.462700000000     0.0409885  
H82      H      0.583420000000     0.827090000000     0.504520000000     0.0176155  
H83      H      0.178330000000     0.423990000000     0.485730000000     0.0257625  
H84      H      0.327780000000     0.091470000000     0.503450000000     0.0159019  
H85      H      0.255110000000     0.313340000000     0.433930000000     0.0394905  
H86      H      0.248280000000     0.200650000000     0.537660000000     0.0380925  
H87      H      0.274370000000     0.142900000000     0.500170000000     0.0594303  
H88      H      0.194580000000     0.253300000000     0.536360000000     0.0385884  
H89      H      0.365130000000     0.235700000000     0.471990000000     0.084273   
H90      H      0.231170000000     0.371160000000     0.481200000000     0.0634361  
H91      H      0.137320000000     0.277140000000     0.488960000000     0.059465   
H92      H      0.308300000000     0.260020000000     0.434220000000     0.0409637  
H93      H      0.085130000000     0.330410000000     0.493240000000     0.0193417  
H94      H      0.419110000000     0.831600000000     0.509470000000     0.0189417  
H95      H      0.086520000000     0.682220000000     0.512170000000     0.020204   
H96      H      0.310530000000     0.758440000000     0.457440000000     0.0390031  
H97      H      0.193810000000     0.760380000000     0.556380000000     0.0382745  
H98      H      0.137760000000     0.736050000000     0.514790000000     0.0607785  
H99      H      0.246710000000     0.813990000000     0.560380000000     0.0391595  
H100     H      0.231890000000     0.646920000000     0.485810000000     0.0837133  
H101     H      0.366120000000     0.778990000000     0.508500000000     0.0579515  
H102     H      0.273150000000     0.873860000000     0.516380000000     0.0574046  
H103     H      0.257270000000     0.705700000000     0.452410000000     0.04013    
H104     H      0.326800000000     0.926070000000     0.517190000000     0.0205605  
H105     H      0.826340000000     0.494610000000     0.422390000000     0.0173801  
H106     H      0.676380000000     0.530120000000     0.089530000000     0.0195876  
H107     H      0.739750000000     0.541140000000     0.322780000000     0.0387249  
H108     H      0.771050000000     0.481780000000     0.185040000000     0.0380517  
H109     H      0.730300000000     0.534180000000     0.141230000000     0.059098   
H110     H      0.823240000000     0.479090000000     0.239080000000     0.0373564  
H111     H      0.647290000000     0.484330000000     0.231760000000     0.0841454  
H112     H      0.774390000000     0.496770000000     0.368810000000     0.0575417  
H113     H      0.869800000000     0.517960000000     0.278300000000     0.0574255  
H114     H      0.687170000000     0.542240000000     0.268960000000     0.0450758  
H115     H      0.920900000000     0.513860000000     0.332160000000     0.0109433  
H116     H      0.178780000000     0.483490000000     0.427920000000     0.0312234  
H117     H      0.330590000000     0.490220000000     0.095300000000     0.00795435 
H118     H      0.257950000000     0.530280000000     0.323330000000     0.0434838  
H119     H      0.249930000000     0.440110000000     0.199700000000     0.035988   
H120     H      0.277240000000     0.483990000000     0.146590000000     0.0576157  
H121     H      0.195900000000     0.436130000000     0.252200000000     0.0366408  
H122     H      0.367600000000     0.500050000000     0.242460000000     0.0816354  
H123     H      0.232170000000     0.480260000000     0.375890000000     0.0648178  
H124     H      0.139070000000     0.480520000000     0.280910000000     0.0571223  
H125     H      0.311180000000     0.535140000000     0.270750000000     0.0413787  
H126     H      0.086110000000     0.483820000000     0.333710000000     0.0116147  
H127     H      0.419880000000     0.488550000000     0.834370000000     0.0232386  
H128     H      0.087170000000     0.487130000000     0.684290000000     0.0228108  
H129     H      0.312270000000     0.535500000000     0.759820000000     0.04089    
H130     H      0.193420000000     0.439120000000     0.764500000000     0.0375304  
H131     H      0.138180000000     0.481370000000     0.738130000000     0.0597007  
H132     H      0.246270000000     0.435520000000     0.818320000000     0.0376802  
H133     H      0.233850000000     0.504790000000     0.649160000000     0.0821552  
H134     H      0.366960000000     0.485690000000     0.781940000000     0.0622938  
H135     H      0.274170000000     0.479300000000     0.877000000000     0.0584219  
H136     H      0.259350000000     0.539970000000     0.706930000000     0.0418439  
H137     H      0.327940000000     0.482110000000     0.929120000000     0.0140316  
H138     H      0.679680000000     0.502790000000     0.921120000000     0.0215384  
H139     H      0.830180000000     0.519120000000     0.588350000000     0.0202945  
H140     H      0.758510000000     0.552000000000     0.817450000000     0.0399032  
H141     H      0.742210000000     0.471480000000     0.688110000000     0.0392401  
H142     H      0.775190000000     0.521820000000     0.638320000000     0.0590105  
H143     H      0.689150000000     0.467050000000     0.741300000000     0.0387568  
H144     H      0.862920000000     0.504590000000     0.736150000000     0.0804762  
H145     H      0.731480000000     0.505490000000     0.867630000000     0.0587666  
H146     H      0.635460000000     0.503800000000     0.775410000000     0.0622322  
H147     H      0.811890000000     0.555510000000     0.764600000000     0.0410297  
H148     H      0.584450000000     0.499190000000     0.829630000000     0.0261859  
H149     H      0.827590000000     0.923830000000     0.997620000000     0.037449   
H150     H      0.677320000000     0.589010000000     0.011470000000     0.0203707  
H151     H      0.744840000000     0.820590000000     0.045530000000     0.0408202  
H152     H      0.762910000000     0.691170000000     0.965380000000     0.0388051  
H153     H      0.731070000000     0.640320000000     0.010020000000     0.056598   
H154     H      0.816200000000     0.744370000000     0.962620000000     0.0406401  
H155     H      0.639540000000     0.736410000000     0.007280000000     0.0782846  
H156     H      0.774660000000     0.871040000000     0.998110000000     0.0626684  
H157     H      0.868870000000     0.777270000000     0.005110000000     0.058317   
H158     H      0.691800000000     0.767420000000     0.048580000000     0.0403702  
H159     H      0.921080000000     0.830660000000     0.004590000000     0.0322447  
H160     H      0.681870000000     0.424390000000     0.001450000000     0.0133042  
H161     H      0.864410000000     0.130200000000     0.072890000000     0.00612351 
H162     H      0.702890000000     0.253860000000     0.946170000000     0.0427293  
H163     H      0.811950000000     0.263170000000     0.053290000000     0.0371102  
H164     H      0.813230000000     0.185630000000     0.069720000000     0.0637547  
H165     H      0.758170000000     0.316050000000     0.050380000000     0.042106   
H166     H      0.833740000000     0.195640000000     0.938510000000     0.0833648  
H167     H      0.735650000000     0.372610000000     0.000820000000     0.0506198  
H168     H      0.643320000000     0.277150000000     0.992190000000     0.0591891  
H169     H      0.756610000000     0.200820000000     0.949220000000     0.0411912  
H170     H      0.589900000000     0.329650000000     0.993030000000     0.0138513  
H171     H      0.327060000000     0.588700000000     0.004110000000     0.00752281 
H172     H      0.175480000000     0.919640000000     0.030920000000     0.012223   
H173     H      0.254350000000     0.702380000000     0.956210000000     0.0397165  
H174     H      0.251720000000     0.807320000000     0.068000000000     0.0382165  
H175     H      0.228890000000     0.867740000000     0.032490000000     0.0601801  
H176     H      0.305630000000     0.754540000000     0.067570000000     0.0382859  
H177     H      0.142000000000     0.777150000000     0.988730000000     0.083886   
H178     H      0.273620000000     0.641140000000     0.005420000000     0.0574466  
H179     H      0.366710000000     0.735380000000     0.017800000000     0.0595172  
H180     H      0.201640000000     0.755900000000     0.955300000000     0.040972   
H181     H      0.419600000000     0.682550000000     0.015910000000     0.0213525  
H182     H      0.422570000000     0.328950000000     0.985010000000     0.0159237  
H183     H      0.123770000000     0.135340000000     0.946100000000    -0.00324585 
H184     H      0.255300000000     0.310910000000     0.047050000000     0.0395049  
H185     H      0.257010000000     0.194120000000     0.947730000000     0.0345239  
H186     H      0.179120000000     0.186250000000     0.938600000000     0.0604486  
H187     H      0.309710000000     0.248280000000     0.942730000000     0.0394198  
H188     H      0.198430000000     0.182720000000     0.070190000000     0.0796478  
H189     H      0.370330000000     0.275130000000     0.983940000000     0.0579945  
H190     H      0.276260000000     0.367920000000     0.999310000000     0.0602469  
H191     H      0.202780000000     0.257140000000     0.051890000000     0.0396381  
H192     H      0.328930000000     0.420980000000     0.000120000000     0.00266159 
H193     H      0.827960000000     0.001360000000     0.925830000000     0.0295239  
H194     H      0.676730000000     0.019720000000     0.594170000000     0.0106829  
H195     H      0.747090000000     0.960330000000     0.817160000000     0.0417021  
H196     H      0.760230000000     0.060370000000     0.701710000000     0.0382193  
H197     H      0.730620000000     0.019880000000     0.645280000000     0.0593798  
H198     H      0.814180000000     0.056940000000     0.754210000000     0.0447329  
H199     H      0.639740000000     0.008530000000     0.741260000000     0.0800384  
H200     H      0.774710000000     0.003540000000     0.873550000000     0.0613955  
H201     H      0.868300000000     0.008920000000     0.779120000000     0.0634766  
H202     H      0.693480000000     0.963410000000     0.764650000000     0.0423533  
H203     H      0.920910000000     0.007090000000     0.831960000000     0.0387769  
H204     H      0.179100000000     0.013260000000     0.920340000000     0.0147924  
H205     H      0.327960000000     0.000990000000     0.587220000000     0.0179049  
H206     H      0.257440000000     0.063030000000     0.811110000000     0.0377074  
H207     H      0.241150000000     0.965820000000     0.693620000000     0.0382233  
H208     H      0.273090000000     0.003150000000     0.637360000000     0.0562604  
H209     H      0.187850000000     0.969220000000     0.746850000000     0.0424538  
H210     H      0.362500000000     0.016120000000     0.734550000000     0.0793629  
H211     H      0.231150000000     0.013870000000     0.866560000000     0.0592656  
H212     H      0.135390000000     0.021370000000     0.774590000000     0.0605752  
H213     H      0.310020000000     0.060720000000     0.757550000000     0.0402868  
H214     H      0.084110000000     0.021640000000     0.828820000000     0.0339903  
H215     H      0.326850000000     0.016360000000     0.421150000000     0.0181846  
H216     H      0.177980000000     0.018300000000     0.087690000000     0.0181165  
H217     H      0.244260000000     0.971630000000     0.315650000000     0.0389124  
H218     H      0.267180000000     0.058020000000     0.191120000000     0.0396666  
H219     H      0.232350000000     0.018000000000     0.138210000000     0.0609839  
H220     H      0.320670000000     0.054240000000     0.244200000000     0.0408419  
H221     H      0.142150000000     0.021470000000     0.235370000000     0.0801943  
H222     H      0.275050000000     0.019240000000     0.367500000000     0.0568925  
H223     H      0.369820000000     0.002720000000     0.275640000000     0.0588628  
H224     H      0.191320000000     0.974620000000     0.262560000000     0.0399729  
H225     H      0.421030000000     0.999290000000     0.330030000000     0.0335984  
H226     H      0.587750000000     0.018270000000     0.334270000000     0.0284794  
H227     H      0.920140000000     0.012010000000     0.182880000000     0.014972   
H228     H      0.692990000000     0.975290000000     0.255550000000     0.0395109  
H229     H      0.817570000000     0.063320000000     0.268240000000     0.0369624  
H230     H      0.870040000000     0.016280000000     0.237800000000     0.0599064  
H231     H      0.764530000000     0.066310000000     0.321880000000     0.0368447  
H232     H      0.772390000000     0.016190000000     0.148100000000     0.0784272  
H233     H      0.640600000000     0.021260000000     0.281840000000     0.0614487  
H234     H      0.733450000000     0.025500000000     0.377080000000     0.0568407  
H235     H      0.745640000000     0.972440000000     0.202250000000     0.0408817  
H236     H      0.679690000000     0.023660000000     0.428970000000     0.0137397  
H237     H      0.019700000000     0.426130000000     0.686300000000     0.0307367  
H238     H      0.071640000000     0.134610000000     0.882910000000     0.000392297
H239     H      0.973070000000     0.323980000000     0.769410000000     0.0438359  
H240     H      0.059970000000     0.198300000000     0.757760000000     0.0381985  
H241     H      0.077460000000     0.190260000000     0.832870000000     0.0603545  
H242     H      0.063580000000     0.251070000000     0.703950000000     0.0375684  
H243     H      0.945610000000     0.199080000000     0.826960000000     0.0843303  
H244     H      0.022390000000     0.375140000000     0.740650000000     0.0607657  
H245     H      0.017010000000     0.278270000000     0.649260000000     0.0620295  
H246     H      0.970250000000     0.271710000000     0.823690000000     0.0430265  
H247     H      0.014620000000     0.330080000000     0.595290000000     0.0246524  
H248     H      0.001130000000     0.681950000000     0.589480000000     0.0260578  
H249     H      0.983410000000     0.834400000000     0.922910000000     0.0389758  
H250     H      0.041570000000     0.761200000000     0.698680000000     0.0400018  
H251     H      0.942260000000     0.751390000000     0.814800000000     0.0405891  
H252     H      0.980610000000     0.780300000000     0.871710000000     0.064175   
H253     H      0.942940000000     0.697620000000     0.761720000000     0.0414051  
H254     H      0.002610000000     0.870140000000     0.776350000000     0.0686356  
H255     H      0.997370000000     0.735340000000     0.641870000000     0.0651456  
H256     H      0.988440000000     0.641280000000     0.735760000000     0.0624226  
H257     H      0.041620000000     0.814250000000     0.751850000000     0.0432868  
H258     H      0.991820000000     0.588600000000     0.682770000000     0.0374251  
H259     H      0.013950000000     0.682540000000     0.424210000000     0.0318037  
H260     H      0.995140000000     0.921610000000     0.180560000000     0.0243534  
H261     H      0.049280000000     0.766130000000     0.318450000000     0.0382875  
H262     H      0.958690000000     0.746760000000     0.196560000000     0.0411141  
H263     H      0.992760000000     0.870690000000     0.234840000000     0.0650604  
H264     H      0.960460000000     0.693620000000     0.249990000000     0.0382382  
H265     H      0.013930000000     0.774530000000     0.145870000000     0.0799956  
H266     H      0.011020000000     0.735580000000     0.372160000000     0.061477   
H267     H      0.003670000000     0.641300000000     0.278050000000     0.0562887  
H268     H      0.046130000000     0.819730000000     0.265680000000     0.0394969  
H269     H      0.004000000000     0.588840000000     0.331260000000     0.00790312 
H270     H      0.024320000000     0.420300000000     0.334690000000     0.01124    
H271     H      0.999180000000     0.087680000000     0.182320000000     0.0344188  
H272     H      0.071420000000     0.308090000000     0.258550000000     0.0372     
H273     H      0.967120000000     0.196210000000     0.267420000000     0.0375772  
H274     H      0.001310000000     0.137810000000     0.237530000000     0.061711   
H275     H      0.969910000000     0.249010000000     0.321280000000     0.0400529  
H276     H      0.030460000000     0.232930000000     0.149320000000     0.079999   
H277     H      0.026020000000     0.366560000000     0.282450000000     0.0567096  
H278     H      0.017360000000     0.274180000000     0.377960000000     0.0604203  
H279     H      0.069670000000     0.254860000000     0.205450000000     0.0413045  
H280     H      0.015900000000     0.328380000000     0.429540000000     0.0239742  
N1       N      0.522410000000     0.127960000000     0.380410000000    -0.272676   
N2       N      0.499260000000     0.378250000000     0.134370000000    -0.251745   
N3       N      0.505630000000     0.078890000000     0.324410000000    -0.0385132  
N4       N      0.508690000000     0.628960000000     0.134190000000    -0.242697   
N5       N      0.505090000000     0.876630000000     0.384320000000    -0.256375   
N6       N      0.542130000000     0.582890000000     0.184480000000    -0.0353662  
N7       N      0.491550000000     0.634010000000     0.883430000000    -0.257914   
N8       N      0.491440000000     0.885100000000     0.635050000000    -0.226764   
N9       N      0.510550000000     0.586540000000     0.826890000000    -0.0400802  
N10      N      0.505420000000     0.136270000000     0.631400000000    -0.251751   
N11      N      0.486620000000     0.381820000000     0.882990000000    -0.266093   
N12      N      0.482180000000     0.188990000000     0.581450000000    -0.0407342  
N13      N      0.877870000000     0.378040000000     0.500060000000    -0.260264   
N14      N      0.628370000000     0.129280000000     0.488370000000    -0.263747   
N15      N      0.927070000000     0.322690000000     0.518350000000    -0.0397564  
N16      N      0.878610000000     0.630470000000     0.510560000000    -0.242888   
N17      N      0.626900000000     0.877260000000     0.504510000000    -0.254536   
N18      N      0.928660000000     0.687840000000     0.505120000000    -0.0346283  
N19      N      0.377640000000     0.133080000000     0.489360000000    -0.261057   
N20      N      0.127790000000     0.381270000000     0.490520000000    -0.265421   
N21      N      0.427430000000     0.184790000000     0.464200000000    -0.0398414  
N22      N      0.128940000000     0.633290000000     0.497250000000    -0.261245   
N23      N      0.377030000000     0.882900000000     0.512850000000    -0.237301   
N24      N      0.181760000000     0.585040000000     0.471420000000    -0.0397648  
N25      N      0.630570000000     0.505050000000     0.130440000000    -0.236898   
N26      N      0.877540000000     0.504100000000     0.381430000000    -0.254546   
N27      N      0.587130000000     0.467660000000     0.180200000000    -0.0370977  
N28      N      0.380200000000     0.499680000000     0.138460000000    -0.260089   
N29      N      0.128390000000     0.485050000000     0.384800000000    -0.266247   
N30      N      0.429740000000     0.515990000000     0.193940000000    -0.0365131  
N31      N      0.130310000000     0.500340000000     0.635540000000    -0.253052   
N32      N      0.377920000000     0.486510000000     0.885780000000    -0.267085   
N33      N      0.185300000000     0.520900000000     0.587030000000    -0.0406811  
N34      N      0.878900000000     0.509770000000     0.632660000000    -0.237047   
N35      N      0.628070000000     0.501650000000     0.879510000000    -0.245198   
N36      N      0.927490000000     0.494930000000     0.689460000000    -0.0354443  
N37      N      0.626790000000     0.632220000000     0.010620000000    -0.234938   
N38      N      0.878410000000     0.881470000000     0.001910000000    -0.234502   
N39      N      0.575400000000     0.688540000000     0.011310000000    -0.0389667  
N40      N      0.878220000000     0.132500000000     0.008440000000    -0.272191   
N41      N      0.631800000000     0.380930000000     0.997740000000    -0.249213   
N42      N      0.884710000000     0.132310000000     0.933180000000    -0.0461209  
N43      N      0.128210000000     0.879060000000     0.008060000000    -0.264824   
N44      N      0.377310000000     0.631650000000     0.009860000000    -0.255821   
N45      N      0.082260000000     0.829310000000     0.973510000000    -0.038289   
N46      N      0.129580000000     0.130460000000     0.011640000000    -0.274244   
N47      N      0.379910000000     0.379060000000     0.993400000000    -0.26598    
N48      N      0.136090000000     0.132990000000     0.086480000000    -0.0565062  
N49      N      0.626730000000     0.012730000000     0.637400000000    -0.253163   
N50      N      0.878480000000     0.004430000000     0.882950000000    -0.226842   
N51      N      0.576010000000     0.001240000000     0.693150000000    -0.0395901  
N52      N      0.377220000000     0.008870000000     0.631140000000    -0.238086   
N53      N      0.127660000000     0.016390000000     0.878640000000    -0.245577   
N54      N      0.426860000000     0.021720000000     0.687690000000    -0.0390202  
N55      N      0.128020000000     0.018600000000     0.131580000000    -0.271753   
N56      N      0.377980000000     0.008130000000     0.379690000000    -0.251515   
N57      N      0.077380000000     0.017120000000     0.188740000000    -0.0396952  
N58      N      0.875850000000     0.010790000000     0.133330000000    -0.258888   
N59      N      0.629620000000     0.020130000000     0.385620000000    -0.266362   
N60      N      0.818540000000     0.007410000000     0.083170000000    -0.0385121  
N61      N      0.005700000000     0.134130000000     0.882820000000    -0.262629   
N62      N      0.015620000000     0.381930000000     0.636790000000    -0.246687   
N63      N      0.929040000000     0.133910000000     0.877750000000    -0.0203349  
N64      N      0.996360000000     0.883640000000     0.880090000000    -0.227038   
N65      N      0.996870000000     0.631180000000     0.632010000000    -0.229551   
N66      N      0.014430000000     0.932910000000     0.824770000000    -0.0366796  
N67      N      0.006380000000     0.878140000000     0.131370000000    -0.264058   
N68      N      0.008110000000     0.631730000000     0.381800000000    -0.255166   
N69      N      0.025040000000     0.822860000000     0.082410000000    -0.0357501  
N70      N      0.015470000000     0.130340000000     0.134060000000    -0.270353   
N71      N      0.019390000000     0.378540000000     0.386050000000    -0.26625    
N72      N      0.040530000000     0.184000000000     0.086670000000    -0.0423531  
O1       O      0.012560000000     0.112980000000     0.063750000000    -1.07221    
O2       O      0.006090000000     0.896800000000     0.061440000000    -0.768393   
O3       O      0.945700000000     0.006530000000     0.114350000000    -0.984817   
O4       O      0.058520000000     0.015110000000     0.112540000000    -1.05956    
O5       O      0.110000000000     0.014820000000     0.061720000000    -1.04871    
O6       O      0.894080000000     0.010360000000     0.063250000000    -0.768319   
O7       O      0.004360000000     0.948160000000     0.113220000000    -0.995937   
O8       O      0.010390000000     0.060990000000     0.114330000000    -1.05204    
O9       O      0.047840000000     0.966390000000     0.050350000000    -2.04571    
O10      O      0.963740000000     0.051480000000     0.051630000000    -2.08509    
O11      O      0.958460000000     0.961620000000     0.053130000000    -0.852017   
O12      O      0.012190000000     0.015760000000     0.015180000000    -2.57649    
O13      O      0.998380000000     0.901070000000     0.950620000000    -0.680478   
O14      O      0.004900000000     0.115800000000     0.951330000000    -0.934141   
O15      O      0.896120000000     0.951760000000     0.005150000000    -0.712868   
O16      O      0.110650000000     0.949120000000     0.009010000000    -0.93935    
O17      O      0.110900000000     0.061610000000     0.015090000000    -1.03701    
O18      O      0.894970000000     0.063410000000     0.013400000000    -0.749581   
O19      O      0.948210000000     0.007160000000     0.900400000000    -0.58375    
O20      O      0.058500000000     0.012830000000     0.897500000000    -0.62953    
O21      O      0.896670000000     0.004800000000     0.952830000000    -0.700219   
O22      O      0.110400000000     0.011670000000     0.948720000000    -0.912264   
O23      O      0.948190000000     0.899560000000     0.004550000000    -0.723499   
O24      O      0.946800000000     0.115020000000     0.008660000000    -0.946478   
O25      O      0.060040000000     0.113840000000     0.011370000000    -1.04154    
O26      O      0.058710000000     0.897970000000     0.009050000000    -0.747209   
O27      O      0.001280000000     0.953520000000     0.899340000000    -0.580154   
O28      O      0.005930000000     0.064720000000     0.898700000000    -0.629493   
O29      O      0.047130000000     0.051210000000     0.967660000000    -2.00321    
O30      O      0.965230000000     0.969870000000     0.968350000000    -1.59461    
O31      O      0.957900000000     0.050290000000     0.962710000000    -1.2067     
O32      O      0.045760000000     0.961900000000     0.960970000000    -1.23108    
O33      O      0.013600000000     0.397850000000     0.455040000000    -1.04421    
O34      O      0.007080000000     0.614370000000     0.451520000000    -0.781471   
O35      O      0.946900000000     0.504980000000     0.400700000000    -1.01071    
O36      O      0.059230000000     0.494180000000     0.402360000000    -1.06833    
O37      O      0.110420000000     0.494270000000     0.453830000000    -1.0557     
O38      O      0.894610000000     0.501990000000     0.451610000000    -0.787191   
O39      O      0.005520000000     0.561960000000     0.400500000000    -1.00696    
O40      O      0.012790000000     0.448480000000     0.402860000000    -1.05826    
O41      O      0.048480000000     0.544940000000     0.463550000000    -2.09921    
O42      O      0.964250000000     0.460190000000     0.464370000000    -2.08224    
O43      O      0.959200000000     0.549650000000     0.461170000000    -0.865666   
O44      O      0.012600000000     0.496920000000     0.500070000000    -2.58088    
O45      O      0.000600000000     0.612610000000     0.562060000000    -0.705747   
O46      O      0.009710000000     0.398700000000     0.566790000000    -0.925934   
O47      O      0.896800000000     0.560230000000     0.508800000000    -0.741905   
O48      O      0.111090000000     0.563240000000     0.502660000000    -0.938019   
O49      O      0.110270000000     0.450700000000     0.498480000000    -1.05363    
O50      O      0.895520000000     0.448450000000     0.502260000000    -0.769577   
O51      O      0.949090000000     0.507160000000     0.614790000000    -0.560432   
O52      O      0.060410000000     0.503510000000     0.617510000000    -0.617756   
O53      O      0.897470000000     0.508010000000     0.562660000000    -0.719366   
O54      O      0.111370000000     0.501970000000     0.565590000000    -0.931856   
O55      O      0.948750000000     0.612210000000     0.508920000000    -0.713309   
O56      O      0.947370000000     0.397560000000     0.504820000000    -0.93273    
O57      O      0.058870000000     0.399220000000     0.498970000000    -1.0499     
O58      O      0.059400000000     0.614510000000     0.501010000000    -0.762665   
O59      O      0.001920000000     0.561220000000     0.614770000000    -0.590993   
O60      O      0.009550000000     0.450930000000     0.617800000000    -0.625401   
O61      O      0.048120000000     0.462110000000     0.548190000000    -2.0116     
O62      O      0.966050000000     0.543330000000     0.546000000000    -1.59408    
O63      O      0.958700000000     0.462770000000     0.553750000000    -1.25177    
O64      O      0.046830000000     0.551730000000     0.552830000000    -1.24725    
O65      O      0.610720000000     0.014400000000     0.454790000000    -1.03705    
O66      O      0.394560000000     0.008890000000     0.449810000000    -0.785223   
O67      O      0.504180000000     0.946500000000     0.401810000000    -1.02395    
O68      O      0.514660000000     0.058780000000     0.400410000000    -1.05858    
O69      O      0.515560000000     0.111420000000     0.450200000000    -1.05195    
O70      O      0.505600000000     0.895380000000     0.454070000000    -0.798248   
O71      O      0.447300000000     0.004750000000     0.399460000000    -0.99836    
O72      O      0.560230000000     0.012410000000     0.402640000000    -1.06572    
O73      O      0.464540000000     0.050290000000     0.461490000000    -2.1047     
O74      O      0.547960000000     0.964850000000     0.465170000000    -2.07721    
O75      O      0.458520000000     0.960870000000     0.461500000000    -0.870861   
O76      O      0.511900000000     0.014670000000     0.499420000000    -2.5751     
O77      O      0.396030000000     0.007250000000     0.561010000000    -0.708717   
O78      O      0.609510000000     0.009980000000     0.567070000000    -0.91818    
O79      O      0.446970000000     0.899930000000     0.510600000000    -0.752901   
O80      O      0.447120000000     0.114470000000     0.497720000000    -0.924933   
O81      O      0.559050000000     0.112110000000     0.495550000000    -1.05285    
O82      O      0.557610000000     0.896670000000     0.505370000000    -0.784181   
O83      O      0.498300000000     0.954520000000     0.615700000000    -0.565379   
O84      O      0.505520000000     0.065900000000     0.615000000000    -0.614814   
O85      O      0.497430000000     0.901250000000     0.564800000000    -0.722736   
O86      O      0.506300000000     0.115770000000     0.561890000000    -0.929751   
O87      O      0.395480000000     0.952710000000     0.509390000000    -0.734714   
O88      O      0.609860000000     0.947570000000     0.506290000000    -0.926267   
O89      O      0.610020000000     0.060230000000     0.498290000000    -1.02425    
O90      O      0.395260000000     0.063390000000     0.497060000000    -0.766102   
O91      O      0.447200000000     0.009260000000     0.613440000000    -0.576958   
O92      O      0.557260000000     0.012300000000     0.617530000000    -0.614417   
O93      O      0.546960000000     0.051240000000     0.546700000000    -1.98394    
O94      O      0.464440000000     0.970190000000     0.546100000000    -1.60727    
O95      O      0.544610000000     0.961550000000     0.554550000000    -1.2555     
O96      O      0.457350000000     0.051260000000     0.550520000000    -1.2535     
O97      O      0.449430000000     0.397670000000     0.997740000000    -1.02102    
O98      O      0.446910000000     0.614310000000     0.008350000000    -0.785599   
O99      O      0.397490000000     0.503140000000     0.068110000000    -0.997673   
O100     O      0.396720000000     0.494450000000     0.954870000000    -1.05791    
O101     O      0.447110000000     0.495220000000     0.902580000000    -1.06076    
O102     O      0.449800000000     0.500750000000     0.118760000000    -0.777569   
O103     O      0.396010000000     0.561850000000     0.009660000000    -1.00352    
O104     O      0.397710000000     0.448570000000     0.001430000000    -1.05825    
O105     O      0.457950000000     0.545020000000     0.964750000000    -2.07609    
O106     O      0.460500000000     0.459540000000     0.048350000000    -2.08117    
O107     O      0.457490000000     0.549010000000     0.054330000000    -0.867617   
O108     O      0.495100000000     0.496480000000     0.999640000000    -2.55639    
O109     O      0.556910000000     0.612420000000     0.010430000000    -0.688157   
O110     O      0.561820000000     0.398150000000     0.001430000000    -0.926493   
O111     O      0.507460000000     0.558930000000     0.115660000000    -0.726981   
O112     O      0.496090000000     0.563650000000     0.901250000000    -0.936462   
O113     O      0.492270000000     0.451180000000     0.901400000000    -1.05501    
O114     O      0.498750000000     0.448030000000     0.116250000000    -0.766614   
O115     O      0.611670000000     0.506120000000     0.060710000000    -0.589022   
O116     O      0.611420000000     0.503240000000     0.949630000000    -0.624242   
O117     O      0.560350000000     0.504610000000     0.113330000000    -0.697161   
O118     O      0.558670000000     0.502630000000     0.899290000000    -0.931555   
O119     O      0.504760000000     0.611640000000     0.064190000000    -0.722405   
O120     O      0.501400000000     0.396650000000     0.064460000000    -0.934787   
O121     O      0.493910000000     0.399120000000     0.952290000000    -1.04083    
O122     O      0.495070000000     0.614630000000     0.953200000000    -0.743712   
O123     O      0.609700000000     0.561610000000     0.007720000000    -0.584668   
O124     O      0.612930000000     0.450280000000     0.001710000000    -0.638827   
O125     O      0.542580000000     0.462050000000     0.962960000000    -1.98156    
O126     O      0.542140000000     0.542920000000     0.045620000000    -1.60827    
O127     O      0.549630000000     0.462030000000     0.052090000000    -1.26671    
O128     O      0.547190000000     0.551660000000     0.964740000000    -1.23693    
O129     O      0.526670000000     0.060770000000     0.295400000000    -0.124144   
O130     O      0.468190000000     0.066540000000     0.331730000000    -0.104943   
O131     O      0.533020000000     0.563040000000     0.218210000000    -0.0824221  
O132     O      0.576730000000     0.574860000000     0.165910000000    -0.0857815  
O133     O      0.547630000000     0.574360000000     0.836140000000    -0.0981685  
O134     O      0.490720000000     0.567970000000     0.797310000000    -0.120549   
O135     O      0.499060000000     0.220390000000     0.562880000000    -0.105996   
O136     O      0.447050000000     0.174980000000     0.568060000000    -0.0808086  
O137     O      0.946520000000     0.294330000000     0.497570000000    -0.117605   
O138     O      0.939280000000     0.331590000000     0.555560000000    -0.0964267  
O139     O      0.943700000000     0.712070000000     0.533390000000    -0.110198   
O140     O      0.946120000000     0.686750000000     0.469010000000    -0.101322   
O141     O      0.444800000000     0.218740000000     0.476920000000    -0.0998294  
O142     O      0.442070000000     0.166340000000     0.431660000000    -0.0948813  
O143     O      0.215540000000     0.567260000000     0.483840000000    -0.101685   
O144     O      0.163850000000     0.571650000000     0.438060000000    -0.100223   
O145     O      0.568280000000     0.473350000000     0.215210000000    -0.0909086  
O146     O      0.579070000000     0.434610000000     0.158800000000    -0.0952847  
O147     O      0.448310000000     0.495380000000     0.222990000000    -0.0957518  
O148     O      0.443130000000     0.552640000000     0.184240000000    -0.0886948  
O149     O      0.215820000000     0.502770000000     0.568270000000    -0.107329   
O150     O      0.173320000000     0.557150000000     0.574390000000    -0.0845866  
O151     O      0.941500000000     0.457880000000     0.682660000000    -0.0917487  
O152     O      0.945000000000     0.517670000000     0.717570000000    -0.11059    
O153     O      0.560030000000     0.707380000000     0.979340000000    -0.101371   
O154     O      0.556510000000     0.691080000000     0.046630000000    -0.0976969  
O155     O      0.918830000000     0.145290000000     0.915400000000    -0.0642278  
O156     O      0.860450000000     0.106110000000     0.914600000000    -0.0854927  
O157     O      0.063230000000     0.794710000000     0.981050000000    -0.0935374  
O158     O      0.072790000000     0.849970000000     0.940390000000    -0.0917118  
O159     O      0.100590000000     0.146780000000     0.099360000000    -0.0890512  
O160     O      0.160010000000     0.113240000000     0.111930000000    -0.116849   
O161     O      0.559130000000     0.025460000000     0.720400000000    -0.103245   
O162     O      0.560220000000     0.964840000000     0.686820000000    -0.084338   
O163     O      0.443250000000     0.997470000000     0.715210000000    -0.0933149  
O164     O      0.442530000000     0.058290000000     0.682030000000    -0.0887121  
O165     O      0.063990000000     0.045940000000     0.213320000000    -0.118005   
O166     O      0.058380000000     0.981710000000     0.188120000000    -0.104305   
O167     O      0.795700000000     0.036450000000     0.067380000000    -0.107554   
O168     O      0.819380000000     0.971280000000     0.065570000000    -0.0986902  
O169     O      0.901250000000     0.147000000000     0.851720000000    -0.10137    
O170     O      0.930840000000     0.093830000000     0.874380000000    -0.067953   
O171     O      0.992550000000     0.952430000000     0.797330000000    -0.0983597  
O172     O      0.051980000000     0.944960000000     0.831970000000    -0.0916403  
O173     O      0.004570000000     0.793900000000     0.063530000000    -0.106676   
O174     O      0.062180000000     0.831670000000     0.070210000000    -0.0841728  
O175     O      0.077010000000     0.171920000000     0.074930000000    -0.0577107  
O176     O      0.020070000000     0.210050000000     0.063960000000    -0.111776   
Tb1      Tb     0.002500000000     0.005400000000     0.076490000000     6.27219    
Tb2      Tb     0.004160000000     0.937560000000     0.008160000000     4.28687    
Tb3      Tb     0.002920000000     0.077290000000     0.006940000000     6.39561    
Tb4      Tb     0.933980000000     0.008290000000     0.009540000000     4.27902    
Tb5      Tb     0.073380000000     0.005910000000     0.005710000000     6.1769     
Tb6      Tb     0.004710000000     0.009560000000     0.937420000000     3.24502    
Tb7      Tb     0.003260000000     0.505470000000     0.438490000000     6.32587    
Tb8      Tb     0.005010000000     0.574720000000     0.505370000000     4.30016    
Tb9      Tb     0.003280000000     0.435520000000     0.509880000000     6.26039    
Tb10     Tb     0.934600000000     0.503840000000     0.505780000000     4.35822    
Tb11     Tb     0.073900000000     0.506620000000     0.509050000000     6.42932    
Tb12     Tb     0.005840000000     0.504520000000     0.577770000000     3.1462     
Tb13     Tb     0.503380000000     0.003780000000     0.438060000000     6.39465    
Tb14     Tb     0.433860000000     0.008400000000     0.504170000000     4.30323    
Tb15     Tb     0.573000000000     0.004780000000     0.509740000000     6.1057     
Tb16     Tb     0.503530000000     0.936930000000     0.507050000000     4.43062    
Tb17     Tb     0.502920000000     0.076530000000     0.506450000000     6.37068    
Tb18     Tb     0.503810000000     0.010190000000     0.576940000000     3.18653    
Tb19     Tb     0.433830000000     0.505210000000     0.010380000000     6.27183    
Tb20     Tb     0.500540000000     0.574470000000     0.007630000000     4.2664     
Tb21     Tb     0.504930000000     0.434970000000     0.008190000000     6.13028    
Tb22     Tb     0.502570000000     0.503040000000     0.077400000000     4.45974    
Tb23     Tb     0.502950000000     0.506800000000     0.938160000000     6.36552    
Tb24     Tb     0.573000000000     0.504220000000     0.004940000000     3.16427    


