data_structure

_audit_creation_method RASPA-1.0
_audit_creation_date 2023-5-19
_audit_author_name 'Poobodin Mano'

_cell_length_a    32.3591
_cell_length_b    32.3837
_cell_length_c    32.3915
_cell_angle_alpha 90
_cell_angle_beta  90
_cell_angle_gamma 90
_cell_volume      33943.3

_symmetry_cell_setting          triclinic
_symmetry_space_group_name_Hall 'P 1'
_symmetry_space_group_name_H-M  'P 1'
_symmetry_Int_Tables_number     1

_symmetry_equiv_pos_as_xyz 'x,y,z'

loop_
_atom_site_label
_atom_site_type_symbol
_atom_site_fract_x
_atom_site_fract_y
_atom_site_fract_z
_atom_site_charge
C1       C      0.046100000000     0.128480000000     0.125800000000     0.715736   
C2       C      0.032380000000     0.936500000000     0.129170000000     0.678846   
C3       C      0.933880000000     0.039010000000     0.128040000000     0.672045   
C4       C      0.126390000000     0.045350000000     0.126510000000     0.7262     
C5       C      0.026910000000     0.936520000000     0.938860000000     0.564447   
C6       C      0.039900000000     0.126820000000     0.934320000000     0.650004   
C7       C      0.934630000000     0.939250000000     0.030470000000     0.584933   
C8       C      0.125220000000     0.934060000000     0.042150000000     0.691325   
C9       C      0.128220000000     0.125610000000     0.044800000000     0.701751   
C10      C      0.936690000000     0.130170000000     0.038420000000     0.689972   
C11      C      0.937150000000     0.030380000000     0.937870000000     0.573009   
C12      C      0.127940000000     0.034150000000     0.935240000000     0.643853   
C13      C      0.045340000000     0.437750000000     0.436440000000     0.717006   
C14      C      0.036610000000     0.630120000000     0.438070000000     0.678577   
C15      C      0.935980000000     0.530810000000     0.434930000000     0.681999   
C16      C      0.128200000000     0.518930000000     0.439010000000     0.722128   
C17      C      0.027730000000     0.625070000000     0.628180000000     0.562405   
C18      C      0.035840000000     0.434320000000     0.627550000000     0.652512   
C19      C      0.937470000000     0.627130000000     0.534000000000     0.591767   
C20      C      0.128490000000     0.627920000000     0.528560000000     0.689079   
C21      C      0.125410000000     0.436510000000     0.518270000000     0.717774   
C22      C      0.933780000000     0.436670000000     0.521550000000     0.687465   
C23      C      0.935350000000     0.534370000000     0.625330000000     0.568731   
C24      C      0.125850000000     0.522700000000     0.630420000000     0.656262   
C25      C      0.626240000000     0.046970000000     0.437750000000     0.727049   
C26      C      0.433990000000     0.035770000000     0.436170000000     0.674236   
C27      C      0.534350000000     0.935810000000     0.436130000000     0.683977   
C28      C      0.541750000000     0.128230000000     0.437440000000     0.728529   
C29      C      0.437240000000     0.028880000000     0.626400000000     0.572452   
C30      C      0.627810000000     0.038320000000     0.629070000000     0.643818   
C31      C      0.437490000000     0.937220000000     0.534160000000     0.593858   
C32      C      0.433710000000     0.127840000000     0.524280000000     0.690573   
C33      C      0.625240000000     0.128020000000     0.518030000000     0.716478   
C34      C      0.628400000000     0.936520000000     0.525030000000     0.686927   
C35      C      0.529520000000     0.937770000000     0.626340000000     0.568574   
C36      C      0.536680000000     0.128420000000     0.628960000000     0.657174   
C37      C      0.437770000000     0.436200000000     0.047010000000     0.722222   
C38      C      0.629990000000     0.439000000000     0.034100000000     0.680318   
C39      C      0.529090000000     0.436710000000     0.935280000000     0.684505   
C40      C      0.522770000000     0.438010000000     0.127770000000     0.732827   
C41      C      0.623590000000     0.629090000000     0.027360000000     0.564644   
C42      C      0.432920000000     0.627390000000     0.039890000000     0.652097   
C43      C      0.624320000000     0.536620000000     0.935610000000     0.586503   
C44      C      0.629220000000     0.527590000000     0.126190000000     0.70068    
C45      C      0.437700000000     0.517630000000     0.128530000000     0.714559   
C46      C      0.433620000000     0.522350000000     0.937170000000     0.696755   
C47      C      0.530190000000     0.627010000000     0.937050000000     0.567154   
C48      C      0.524720000000     0.629700000000     0.127700000000     0.659902   
C49      C      0.521250000000     0.366890000000     0.147280000000     0.111369   
C50      C      0.522940000000     0.336020000000     0.177470000000    -0.121071   
C51      C      0.524110000000     0.346610000000     0.219420000000     0.0640321  
C52      C      0.522160000000     0.388580000000     0.229870000000    -0.121118   
C53      C      0.520410000000     0.418660000000     0.198900000000     0.112044   
C54      C      0.528240000000     0.314190000000     0.251970000000    -0.0135391  
C55      C      0.507190000000     0.276340000000     0.248510000000    -0.0350779  
C56      C      0.511570000000     0.245770000000     0.278770000000    -0.035068   
C57      C      0.537160000000     0.252160000000     0.313340000000    -0.0134443  
C58      C      0.558210000000     0.290020000000     0.316790000000    -0.0350445  
C59      C      0.553810000000     0.320600000000     0.286540000000    -0.0348863  
C60      C      0.541270000000     0.219700000000     0.345870000000     0.0639147  
C61      C      0.542870000000     0.177730000000     0.335400000000    -0.120955   
C62      C      0.544390000000     0.147610000000     0.366340000000     0.111394   
C63      C      0.544200000000     0.199350000000     0.417990000000     0.111568   
C64      C      0.542700000000     0.230260000000     0.387830000000    -0.120707   
C65      C      0.535570000000     0.865110000000     0.416450000000     0.105725   
C66      C      0.534140000000     0.834560000000     0.386250000000    -0.118452   
C67      C      0.531630000000     0.845690000000     0.344620000000     0.0655006  
C68      C      0.531130000000     0.887580000000     0.334160000000    -0.122017   
C69      C      0.532550000000     0.917330000000     0.365140000000     0.113294   
C70      C      0.529210000000     0.813740000000     0.312230000000    -0.0138024  
C71      C      0.503490000000     0.779200000000     0.317440000000    -0.0346163  
C72      C      0.501150000000     0.749040000000     0.286850000000    -0.0350192  
C73      C      0.524490000000     0.752900000000     0.250510000000    -0.0131059  
C74      C      0.550130000000     0.787510000000     0.245270000000    -0.0347567  
C75      C      0.552450000000     0.817670000000     0.275850000000    -0.0344593  
C76      C      0.522710000000     0.720610000000     0.218400000000     0.0644819  
C77      C      0.523570000000     0.678830000000     0.229270000000    -0.120788   
C78      C      0.523590000000     0.648780000000     0.198540000000     0.114041   
C79      C      0.521090000000     0.700490000000     0.146680000000     0.100924   
C80      C      0.521040000000     0.731320000000     0.176620000000    -0.114638   
C81      C      0.527680000000     0.866460000000     0.645450000000     0.0975241  
C82      C      0.527650000000     0.835350000000     0.675480000000    -0.108118   
C83      C      0.528180000000     0.845600000000     0.717550000000     0.0575229  
C84      C      0.528260000000     0.887570000000     0.728190000000    -0.105706   
C85      C      0.528320000000     0.917900000000     0.697390000000     0.0931498  
C86      C      0.528920000000     0.812820000000     0.750090000000    -0.00966263 
C87      C      0.505990000000     0.776170000000     0.745410000000    -0.0349066  
C88      C      0.506740000000     0.745510000000     0.775940000000    -0.0349218  
C89      C      0.530370000000     0.750650000000     0.812060000000    -0.00974296 
C90      C      0.553350000000     0.787250000000     0.816700000000    -0.0347178  
C91      C      0.552660000000     0.817860000000     0.786160000000    -0.0347156  
C92      C      0.530850000000     0.718150000000     0.844830000000     0.0574803  
C93      C      0.531660000000     0.676090000000     0.834610000000    -0.108124   
C94      C      0.531750000000     0.646070000000     0.865740000000     0.0972961  
C95      C      0.530330000000     0.698070000000     0.917110000000     0.0929108  
C96      C      0.530350000000     0.728850000000     0.886770000000    -0.105652   
C97      C      0.537990000000     0.199260000000     0.648070000000     0.113499   
C98      C      0.538140000000     0.229990000000     0.678140000000    -0.120324   
C99      C      0.538840000000     0.219090000000     0.719910000000     0.0644204  
C100     C      0.540100000000     0.177280000000     0.730600000000    -0.11453    
C101     C      0.539890000000     0.147350000000     0.699760000000     0.100905   
C102     C      0.537430000000     0.251210000000     0.752220000000    -0.0129233  
C103     C      0.561030000000     0.287390000000     0.748270000000    -0.0348172  
C104     C      0.559110000000     0.317950000000     0.778480000000    -0.0344815  
C105     C      0.533620000000     0.312840000000     0.813190000000    -0.0137071  
C106     C      0.510140000000     0.276620000000     0.817230000000    -0.0343806  
C107     C      0.512000000000     0.246080000000     0.786990000000    -0.0347074  
C108     C      0.531590000000     0.345210000000     0.845160000000     0.0657276  
C109     C      0.528880000000     0.386840000000     0.834050000000    -0.118483   
C110     C      0.527610000000     0.417040000000     0.864600000000     0.106005   
C111     C      0.531340000000     0.365720000000     0.916790000000     0.113482   
C112     C      0.532570000000     0.334740000000     0.887020000000    -0.121933   
C113     C      0.862800000000     0.418520000000     0.514000000000     0.105332   
C114     C      0.831620000000     0.388910000000     0.510450000000    -0.115719   
C115     C      0.841650000000     0.346840000000     0.510130000000     0.0636154  
C116     C      0.883340000000     0.335590000000     0.512950000000    -0.118665   
C117     C      0.913760000000     0.366000000000     0.516500000000     0.11211    
C118     C      0.808740000000     0.314860000000     0.507840000000    -0.0123162  
C119     C      0.771990000000     0.319480000000     0.530510000000    -0.0350794  
C120     C      0.741480000000     0.289000000000     0.529390000000    -0.0342018  
C121     C      0.746910000000     0.253120000000     0.505530000000    -0.0138256  
C122     C      0.783490000000     0.248660000000     0.482520000000    -0.0343142  
C123     C      0.814060000000     0.279170000000     0.483670000000    -0.0351092  
C124     C      0.714960000000     0.220100000000     0.505740000000     0.0650891  
C125     C      0.672840000000     0.230030000000     0.505750000000    -0.121821   
C126     C      0.643250000000     0.198810000000     0.508870000000     0.111863   
C127     C      0.695830000000     0.147900000000     0.510570000000     0.111409   
C128     C      0.726240000000     0.178370000000     0.507490000000    -0.121208   
C129     C      0.918550000000     0.698320000000     0.535580000000     0.0983042  
C130     C      0.888590000000     0.729370000000     0.534660000000    -0.11088    
C131     C      0.846620000000     0.718960000000     0.532990000000     0.059696   
C132     C      0.835780000000     0.677110000000     0.533030000000    -0.111775   
C133     C      0.866490000000     0.646860000000     0.534040000000     0.0988706  
C134     C      0.814330000000     0.751530000000     0.530750000000    -0.0108621  
C135     C      0.817590000000     0.787600000000     0.554670000000    -0.0352329  
C136     C      0.787180000000     0.818170000000     0.552510000000    -0.0339343  
C137     C      0.752820000000     0.813420000000     0.526350000000    -0.0127871  
C138     C      0.749630000000     0.777400000000     0.502350000000    -0.0342722  
C139     C      0.780020000000     0.746820000000     0.504520000000    -0.0354127  
C140     C      0.720220000000     0.845730000000     0.524490000000     0.0640794  
C141     C      0.730630000000     0.887700000000     0.524940000000    -0.119054   
C142     C      0.699580000000     0.917640000000     0.524410000000     0.112668   
C143     C      0.648080000000     0.865640000000     0.522340000000     0.105488   
C144     C      0.678350000000     0.834910000000     0.522800000000    -0.115742   
C145     C      0.143520000000     0.365800000000     0.508840000000     0.111948   
C146     C      0.173140000000     0.334600000000     0.506000000000    -0.121976   
C147     C      0.215250000000     0.344540000000     0.506710000000     0.0652466  
C148     C      0.226530000000     0.386250000000     0.508770000000    -0.12169    
C149     C      0.196090000000     0.416710000000     0.511540000000     0.112251   
C150     C      0.247160000000     0.311520000000     0.506980000000    -0.0140137  
C151     C      0.241390000000     0.275710000000     0.530850000000    -0.0344795  
C152     C      0.271870000000     0.245230000000     0.532460000000    -0.0351973  
C153     C      0.308900000000     0.249790000000     0.510260000000    -0.0127371  
C154     C      0.314570000000     0.285410000000     0.486070000000    -0.0352508  
C155     C      0.284040000000     0.315930000000     0.484450000000    -0.0345876  
C156     C      0.341720000000     0.217790000000     0.512990000000     0.0636305  
C157     C      0.331640000000     0.175730000000     0.513180000000    -0.116098   
C158     C      0.362750000000     0.146090000000     0.516880000000     0.105089   
C159     C      0.413740000000     0.198550000000     0.519890000000     0.112717   
C160     C      0.383390000000     0.228990000000     0.516220000000    -0.119568   
C161     C      0.199650000000     0.646880000000     0.528690000000     0.112848   
C162     C      0.230650000000     0.676870000000     0.529290000000    -0.119946   
C163     C      0.220150000000     0.718800000000     0.528930000000     0.0641705  
C164     C      0.178280000000     0.729590000000     0.527340000000    -0.116114   
C165     C      0.148060000000     0.698820000000     0.526680000000     0.105053   
C166     C      0.252660000000     0.751140000000     0.530620000000    -0.0131509  
C167     C      0.289200000000     0.747010000000     0.507530000000    -0.0343604  
C168     C      0.319760000000     0.777440000000     0.509180000000    -0.0355533  
C169     C      0.314510000000     0.812680000000     0.533990000000    -0.0110088  
C170     C      0.278010000000     0.816730000000     0.557190000000    -0.0353548  
C171     C      0.247440000000     0.786320000000     0.555500000000    -0.0340937  
C172     C      0.346780000000     0.845310000000     0.535290000000     0.0598046  
C173     C      0.388790000000     0.834970000000     0.535980000000    -0.111829   
C174     C      0.418700000000     0.866040000000     0.536130000000     0.0988327  
C175     C      0.366550000000     0.917440000000     0.535530000000     0.0989183  
C176     C      0.335860000000     0.887140000000     0.535370000000    -0.111389   
C177     C      0.649270000000     0.524920000000     0.196680000000     0.116532   
C178     C      0.679660000000     0.524400000000     0.227070000000    -0.12275    
C179     C      0.721390000000     0.524630000000     0.215820000000     0.0661249  
C180     C      0.731680000000     0.524510000000     0.173880000000    -0.118154   
C181     C      0.700460000000     0.524990000000     0.144230000000     0.10738    
C182     C      0.753910000000     0.525680000000     0.247840000000    -0.0137647  
C183     C      0.749400000000     0.551290000000     0.282550000000    -0.0344867  
C184     C      0.779700000000     0.552110000000     0.313070000000    -0.0348834  
C185     C      0.815160000000     0.527400000000     0.309450000000    -0.0134816  
C186     C      0.819930000000     0.502070000000     0.274570000000    -0.0346991  
C187     C      0.789540000000     0.501200000000     0.244020000000    -0.0345487  
C188     C      0.846910000000     0.527950000000     0.342200000000     0.0651551  
C189     C      0.835320000000     0.527320000000     0.383780000000    -0.118087   
C190     C      0.865510000000     0.528240000000     0.414380000000     0.105682   
C191     C      0.918350000000     0.530340000000     0.363620000000     0.112439   
C192     C      0.888920000000     0.529340000000     0.332220000000    -0.121351   
C193     C      0.199260000000     0.510340000000     0.420770000000     0.110056   
C194     C      0.230540000000     0.506930000000     0.391090000000    -0.120045   
C195     C      0.220650000000     0.506300000000     0.348950000000     0.0631951  
C196     C      0.178800000000     0.508200000000     0.337880000000    -0.119877   
C197     C      0.148290000000     0.511680000000     0.368360000000     0.10975    
C198     C      0.253770000000     0.504840000000     0.316760000000    -0.0131598  
C199     C      0.290480000000     0.527620000000     0.321700000000    -0.0350042  
C200     C      0.321030000000     0.527400000000     0.291080000000    -0.0349589  
C201     C      0.315840000000     0.504360000000     0.254590000000    -0.0129935  
C202     C      0.279310000000     0.481220000000     0.249820000000    -0.0351222  
C203     C      0.248700000000     0.481480000000     0.280460000000    -0.0350823  
C204     C      0.347970000000     0.505370000000     0.221370000000     0.0629278  
C205     C      0.390200000000     0.506490000000     0.231080000000    -0.119648   
C206     C      0.419780000000     0.509680000000     0.199690000000     0.109718   
C207     C      0.367160000000     0.509550000000     0.148920000000     0.10943    
C208     C      0.336780000000     0.506380000000     0.179550000000    -0.119401   
C209     C      0.196350000000     0.517080000000     0.650390000000     0.113038   
C210     C      0.226630000000     0.513970000000     0.680800000000    -0.11978    
C211     C      0.215150000000     0.512470000000     0.722410000000     0.0640288  
C212     C      0.173150000000     0.513450000000     0.732520000000    -0.114229   
C213     C      0.143680000000     0.516540000000     0.701350000000     0.100584   
C214     C      0.246890000000     0.511150000000     0.755170000000    -0.0127026  
C215     C      0.281820000000     0.485710000000     0.751110000000    -0.0349326  
C216     C      0.312340000000     0.485610000000     0.781530000000    -0.0343783  
C217     C      0.308480000000     0.510970000000     0.816500000000    -0.0135018  
C218     C      0.273360000000     0.536110000000     0.820680000000    -0.0341538  
C219     C      0.242860000000     0.536180000000     0.790330000000    -0.0347517  
C220     C      0.341370000000     0.512080000000     0.848150000000     0.0660656  
C221     C      0.383020000000     0.513060000000     0.836620000000    -0.117857   
C222     C      0.413540000000     0.516090000000     0.866810000000     0.10777    
C223     C      0.362580000000     0.516440000000     0.919490000000     0.115546   
C224     C      0.331320000000     0.513400000000     0.890120000000    -0.121575   
C225     C      0.914890000000     0.536380000000     0.696140000000     0.0935118  
C226     C      0.884360000000     0.537550000000     0.726680000000    -0.106      
C227     C      0.842460000000     0.538720000000     0.715740000000     0.0574607  
C228     C      0.832500000000     0.539240000000     0.673600000000    -0.108036   
C229     C      0.863860000000     0.538090000000     0.643790000000     0.0971411  
C230     C      0.809520000000     0.539020000000     0.748120000000    -0.00971173 
C231     C      0.813890000000     0.515330000000     0.784290000000    -0.0350294  
C232     C      0.783330000000     0.515730000000     0.814860000000    -0.0347229  
C233     C      0.747420000000     0.539770000000     0.810160000000    -0.0105207  
C234     C      0.742850000000     0.563270000000     0.773890000000    -0.0347818  
C235     C      0.773500000000     0.562930000000     0.743300000000    -0.0351143  
C236     C      0.714970000000     0.540170000000     0.842980000000     0.0583476  
C237     C      0.725870000000     0.540320000000     0.884860000000    -0.109393   
C238     C      0.695230000000     0.539640000000     0.915330000000     0.0970636  
C239     C      0.642950000000     0.539100000000     0.864190000000     0.0965424  
C240     C      0.672840000000     0.539900000000     0.832910000000    -0.109642   
C241     C      0.642330000000     0.700500000000     0.025830000000     0.0909784  
C242     C      0.672270000000     0.731730000000     0.025090000000    -0.106222   
C243     C      0.714370000000     0.721570000000     0.023870000000     0.0553621  
C244     C      0.725160000000     0.679680000000     0.022720000000    -0.108318   
C245     C      0.694480000000     0.649260000000     0.023400000000     0.0961434  
C246     C      0.746870000000     0.754330000000     0.024340000000    -0.00820625 
C247     C      0.741910000000     0.791090000000     0.001690000000    -0.0421309  
C248     C      0.772570000000     0.821660000000     0.002150000000    -0.0418491  
C249     C      0.808980000000     0.816330000000     0.025330000000    -0.00856804 
C250     C      0.813780000000     0.779650000000     0.048140000000    -0.0356312  
C251     C      0.783190000000     0.749100000000     0.047620000000    -0.0358326  
C252     C      0.841870000000     0.848740000000     0.025810000000     0.0563773  
C253     C      0.831820000000     0.890860000000     0.026580000000    -0.108983   
C254     C      0.863130000000     0.920700000000     0.027850000000     0.0956793  
C255     C      0.914290000000     0.868430000000     0.027180000000     0.0963654  
C256     C      0.883790000000     0.837850000000     0.025880000000    -0.109267   
C257     C      0.701170000000     0.420870000000     0.037180000000     0.103661   
C258     C      0.732350000000     0.391270000000     0.039220000000    -0.117731   
C259     C      0.722070000000     0.349320000000     0.040030000000     0.0629174  
C260     C      0.680390000000     0.338000000000     0.038710000000    -0.121616   
C261     C      0.650000000000     0.368390000000     0.036560000000     0.111506   
C262     C      0.754690000000     0.317450000000     0.041810000000    -0.011707   
C263     C      0.790060000000     0.320890000000     0.016950000000    -0.0416844  
C264     C      0.820380000000     0.290340000000     0.017860000000    -0.0416018  
C265     C      0.815960000000     0.255790000000     0.043730000000    -0.0114874  
C266     C      0.780760000000     0.252560000000     0.068910000000    -0.0354682  
C267     C      0.750390000000     0.283100000000     0.067930000000    -0.0354746  
C268     C      0.847630000000     0.222880000000     0.043790000000     0.0635552  
C269     C      0.889690000000     0.232790000000     0.042510000000    -0.12094    
C270     C      0.919070000000     0.201400000000     0.041100000000     0.113626   
C271     C      0.866240000000     0.150620000000     0.042870000000     0.106059   
C272     C      0.836040000000     0.181260000000     0.044270000000    -0.117329   
C273     C      0.361770000000     0.644490000000     0.046430000000     0.111791   
C274     C      0.330290000000     0.673620000000     0.049820000000    -0.120069   
C275     C      0.339980000000     0.715700000000     0.050490000000     0.063471   
C276     C      0.381470000000     0.727610000000     0.048180000000    -0.113967   
C277     C      0.412190000000     0.697670000000     0.044820000000     0.0994458  
C278     C      0.306910000000     0.747110000000     0.052490000000    -0.0129075  
C279     C      0.271040000000     0.742600000000     0.028490000000    -0.0351661  
C280     C      0.240520000000     0.772940000000     0.029030000000    -0.0346813  
C281     C      0.245280000000     0.808380000000     0.053550000000    -0.013775   
C282     C      0.280850000000     0.812630000000     0.078020000000    -0.0344587  
C283     C      0.311390000000     0.782250000000     0.077510000000    -0.035025   
C284     C      0.213780000000     0.841380000000     0.052460000000     0.0655472  
C285     C      0.171680000000     0.831650000000     0.052580000000    -0.118218   
C286     C      0.142440000000     0.863070000000     0.049550000000     0.106761   
C287     C      0.195590000000     0.913490000000     0.046910000000     0.114218   
C288     C      0.225620000000     0.882840000000     0.049960000000    -0.121367   
C289     C      0.148030000000     0.196130000000     0.053290000000     0.108123   
C290     C      0.178320000000     0.226770000000     0.056500000000    -0.119441   
C291     C      0.220320000000     0.216130000000     0.056700000000     0.0620622  
C292     C      0.230600000000     0.174080000000     0.054880000000    -0.118822   
C293     C      0.199460000000     0.144150000000     0.051750000000     0.107359   
C294     C      0.253000000000     0.248790000000     0.057640000000    -0.0132051  
C295     C      0.247850000000     0.285680000000     0.035270000000    -0.0355936  
C296     C      0.278360000000     0.316290000000     0.035660000000    -0.035428   
C297     C      0.315020000000     0.310990000000     0.058400000000    -0.0136249  
C298     C      0.320320000000     0.274060000000     0.080720000000    -0.0353196  
C299     C      0.289710000000     0.243370000000     0.080360000000    -0.0355065  
C300     C      0.347600000000     0.343740000000     0.058200000000     0.0626677  
C301     C      0.336810000000     0.385660000000     0.058860000000    -0.120508   
C302     C      0.367370000000     0.416080000000     0.056110000000     0.109506   
C303     C      0.419540000000     0.364880000000     0.053380000000     0.108674   
C304     C      0.389700000000     0.333620000000     0.056120000000    -0.120102   
C305     C      0.647200000000     0.039410000000     0.700020000000     0.0974836  
C306     C      0.677350000000     0.038870000000     0.730840000000    -0.111744   
C307     C      0.719270000000     0.038400000000     0.720140000000     0.0605674  
C308     C      0.729860000000     0.039190000000     0.678230000000    -0.117502   
C309     C      0.698910000000     0.039780000000     0.648190000000     0.109128   
C310     C      0.751740000000     0.036580000000     0.752510000000    -0.0106151  
C311     C      0.747940000000     0.059880000000     0.788930000000    -0.0348489  
C312     C      0.778320000000     0.057850000000     0.819520000000    -0.0358769  
C313     C      0.813190000000     0.032470000000     0.814400000000    -0.00856197 
C314     C      0.816990000000     0.009170000000     0.777980000000    -0.0416909  
C315     C      0.786610000000     0.011200000000     0.747400000000    -0.0404476  
C316     C      0.845660000000     0.030630000000     0.846770000000     0.057521   
C317     C      0.835070000000     0.029770000000     0.888680000000    -0.109626   
C318     C      0.866010000000     0.029110000000     0.918720000000     0.0989963  
C319     C      0.917730000000     0.029580000000     0.866890000000     0.0945001  
C320     C      0.887580000000     0.030200000000     0.836080000000    -0.107867   
C321     C      0.199060000000     0.034330000000     0.916090000000     0.10947    
C322     C      0.229970000000     0.033600000000     0.886030000000    -0.116765   
C323     C      0.219340000000     0.033000000000     0.844130000000     0.0607525  
C324     C      0.177430000000     0.033650000000     0.833450000000    -0.112102   
C325     C      0.147310000000     0.034470000000     0.864290000000     0.0980153  
C326     C      0.251760000000     0.031500000000     0.811730000000    -0.0104786  
C327     C      0.287770000000     0.055480000000     0.815380000000    -0.0349825  
C328     C      0.318280000000     0.054030000000     0.784920000000    -0.0358433  
C329     C      0.313530000000     0.028500000000     0.750120000000    -0.00889732 
C330     C      0.277530000000     0.004480000000     0.746490000000    -0.0416289  
C331     C      0.246990000000     0.005980000000     0.776940000000    -0.0406995  
C332     C      0.345930000000     0.027190000000     0.717650000000     0.0572066  
C333     C      0.387870000000     0.027490000000     0.728250000000    -0.108122   
C334     C      0.417960000000     0.027480000000     0.697380000000     0.0937176  
C335     C      0.366170000000     0.026160000000     0.645650000000     0.0980667  
C336     C      0.335280000000     0.026160000000     0.675750000000    -0.110328   
C337     C      0.197230000000     0.052190000000     0.145380000000     0.111903   
C338     C      0.228180000000     0.053910000000     0.175330000000    -0.122674   
C339     C      0.217680000000     0.054120000000     0.217260000000     0.0650682  
C340     C      0.175770000000     0.054180000000     0.228030000000    -0.122652   
C341     C      0.145570000000     0.052400000000     0.197260000000     0.111898   
C342     C      0.250290000000     0.052640000000     0.249530000000    -0.0146669  
C343     C      0.284830000000     0.026770000000     0.244580000000    -0.0349284  
C344     C      0.315060000000     0.024320000000     0.275240000000    -0.036005   
C345     C      0.311540000000     0.047720000000     0.311620000000    -0.0129898  
C346     C      0.277080000000     0.073750000000     0.316530000000    -0.0357446  
C347     C      0.246780000000     0.076150000000     0.285840000000    -0.0347746  
C348     C      0.343610000000     0.044720000000     0.344340000000     0.0621719  
C349     C      0.385580000000     0.042320000000     0.334040000000    -0.119866   
C350     C      0.415330000000     0.039120000000     0.365090000000     0.109317   
C351     C      0.363160000000     0.040610000000     0.416440000000     0.101928   
C352     C      0.332600000000     0.043840000000     0.386150000000    -0.115809   
C353     C      0.863080000000     0.044630000000     0.147730000000     0.101843   
C354     C      0.832510000000     0.047940000000     0.178010000000    -0.115635   
C355     C      0.843490000000     0.048810000000     0.219830000000     0.0622939  
C356     C      0.885470000000     0.046490000000     0.230120000000    -0.119175   
C357     C      0.915220000000     0.043160000000     0.199090000000     0.109509   
C358     C      0.811380000000     0.051540000000     0.252580000000    -0.0127639  
C359     C      0.776590000000     0.077120000000     0.247630000000    -0.0354228  
C360     C      0.746230000000     0.079170000000     0.278310000000    -0.0348354  
C361     C      0.750030000000     0.055760000000     0.314660000000    -0.0143227  
C362     C      0.784900000000     0.030360000000     0.319670000000    -0.0347663  
C363     C      0.815170000000     0.028250000000     0.289010000000    -0.0355823  
C364     C      0.717390000000     0.056860000000     0.346920000000     0.0649861  
C365     C      0.675470000000     0.056160000000     0.336170000000    -0.122318   
C366     C      0.645300000000     0.054000000000     0.366950000000     0.111483   
C367     C      0.696960000000     0.054920000000     0.418830000000     0.111832   
C368     C      0.727880000000     0.057010000000     0.388850000000    -0.122456   
C369     C      0.044770000000     0.144710000000     0.863340000000     0.100245   
C370     C      0.046950000000     0.174190000000     0.832150000000    -0.114264   
C371     C      0.047650000000     0.216150000000     0.842290000000     0.0637298  
C372     C      0.046900000000     0.227600000000     0.883920000000    -0.119308   
C373     C      0.044720000000     0.197310000000     0.914360000000     0.111856   
C374     C      0.047980000000     0.247870000000     0.809550000000    -0.0129638  
C375     C      0.022360000000     0.243540000000     0.774820000000    -0.035116   
C376     C      0.021600000000     0.273970000000     0.744450000000    -0.0349616  
C377     C      0.046440000000     0.309320000000     0.748230000000    -0.0132236  
C378     C      0.072370000000     0.313490000000     0.782760000000    -0.0348293  
C379     C      0.073130000000     0.283020000000     0.813160000000    -0.0348644  
C380     C      0.044610000000     0.342080000000     0.716590000000     0.0637775  
C381     C      0.043460000000     0.332000000000     0.674630000000    -0.120221   
C382     C      0.040610000000     0.363250000000     0.645240000000     0.111937   
C383     C      0.040260000000     0.414130000000     0.697970000000     0.0999434  
C384     C      0.043160000000     0.383660000000     0.728150000000    -0.114382   
C385     C      0.024960000000     0.916050000000     0.867960000000     0.0924056  
C386     C      0.023700000000     0.885500000000     0.837370000000    -0.106911   
C387     C      0.022200000000     0.843620000000     0.848300000000     0.058025   
C388     C      0.021590000000     0.833740000000     0.890470000000    -0.108125   
C389     C      0.022760000000     0.865100000000     0.920300000000     0.0963295  
C390     C      0.021720000000     0.810580000000     0.815940000000    -0.0164591  
C391     C      0.999020000000     0.815660000000     0.779210000000    -0.0281699  
C392     C      0.999180000000     0.785050000000     0.748600000000    -0.0279745  
C393     C      0.022080000000     0.748440000000     0.753750000000    -0.0167447  
C394     C      0.044590000000     0.743280000000     0.790600000000    -0.034195   
C395     C      0.044380000000     0.773860000000     0.821240000000    -0.0343297  
C396     C      0.022810000000     0.715990000000     0.720750000000     0.0576314  
C397     C      0.023440000000     0.726780000000     0.678800000000    -0.108985   
C398     C      0.024770000000     0.696080000000     0.648330000000     0.0954439  
C399     C      0.024590000000     0.643940000000     0.699530000000     0.0911576  
C400     C      0.023230000000     0.673850000000     0.730760000000    -0.106685   
C401     C      0.034460000000     0.865960000000     0.149330000000     0.104537   
C402     C      0.035440000000     0.835630000000     0.179750000000    -0.11809    
C403     C      0.035460000000     0.847000000000     0.221390000000     0.0633881  
C404     C      0.034640000000     0.888950000000     0.231600000000    -0.121028   
C405     C      0.033580000000     0.918520000000     0.200370000000     0.111423   
C406     C      0.036100000000     0.815140000000     0.253990000000    -0.0118119  
C407     C      0.010970000000     0.779970000000     0.250580000000    -0.041214   
C408     C      0.011740000000     0.749660000000     0.281090000000    -0.0411269  
C409     C      0.037730000000     0.753900000000     0.315560000000    -0.0118095  
C410     C      0.062750000000     0.789180000000     0.319080000000    -0.0352526  
C411     C      0.061920000000     0.819550000000     0.288570000000    -0.0351893  
C412     C      0.038590000000     0.721550000000     0.347710000000     0.0630891  
C413     C      0.038230000000     0.679780000000     0.336740000000    -0.121859   
C414     C      0.037930000000     0.649620000000     0.367350000000     0.111541   
C415     C      0.038960000000     0.701140000000     0.419430000000     0.103499   
C416     C      0.039250000000     0.732110000000     0.389580000000    -0.117223   
C417     C      0.052580000000     0.367110000000     0.416190000000     0.108649   
C418     C      0.055970000000     0.336700000000     0.385630000000    -0.119586   
C419     C      0.057970000000     0.347860000000     0.343840000000     0.0623813  
C420     C      0.057540000000     0.390060000000     0.334100000000    -0.119995   
C421     C      0.054140000000     0.419670000000     0.365430000000     0.108723   
C422     C      0.059310000000     0.315730000000     0.310640000000    -0.0133891  
C423     C      0.082090000000     0.279040000000     0.315810000000    -0.035408   
C424     C      0.082200000000     0.248480000000     0.285140000000    -0.0353314  
C425     C      0.059550000000     0.253730000000     0.248400000000    -0.0133554  
C426     C      0.037110000000     0.290580000000     0.243090000000    -0.0354841  
C427     C      0.036990000000     0.321100000000     0.273730000000    -0.0354821  
C428     C      0.058450000000     0.220660000000     0.216140000000     0.0624076  
C429     C      0.056330000000     0.178820000000     0.227100000000    -0.119828   
C430     C      0.053070000000     0.148380000000     0.196540000000     0.108946   
C431     C      0.055120000000     0.199390000000     0.144220000000     0.108411   
C432     C      0.058360000000     0.230590000000     0.173990000000    -0.119477   
H1       H      0.001380000000     0.004030000000     0.063650000000    -1.27158    
H2       H      0.056690000000     0.056950000000     0.056670000000    -1.0561     
H3       H      0.995520000000     0.102610000000     0.994440000000    -0.501048   
H4       H      0.100850000000     0.992960000000     0.996160000000    -0.507698   
H5       H      0.003020000000     0.561610000000     0.501290000000    -1.25402    
H6       H      0.056500000000     0.507070000000     0.507660000000    -1.07602    
H7       H      0.992760000000     0.461420000000     0.567530000000    -0.511688   
H8       H      0.101290000000     0.567870000000     0.570930000000    -0.537946   
H9       H      0.502360000000     0.003180000000     0.501010000000    -1.26818    
H10      H      0.556010000000     0.057650000000     0.507470000000    -1.07156    
H11      H      0.601850000000     0.995690000000     0.568780000000    -0.512448   
H12      H      0.493300000000     0.102310000000     0.569050000000    -0.533188   
H13      H      0.560290000000     0.502220000000     0.002380000000    -1.26616    
H14      H      0.506960000000     0.507540000000     0.057360000000    -1.09503    
H15      H      0.459420000000     0.567960000000     0.995730000000    -0.519241   
H16      H      0.568590000000     0.570490000000     0.101240000000    -0.553869   
H17      H      0.521200000000     0.357070000000     0.115290000000     0.010461   
H18      H      0.524550000000     0.304040000000     0.167810000000     0.054659   
H19      H      0.522060000000     0.398270000000     0.261870000000     0.0554152  
H20      H      0.519470000000     0.450680000000     0.208620000000     0.0128378  
H21      H      0.486770000000     0.270510000000     0.222670000000     0.0342786  
H22      H      0.494260000000     0.217350000000     0.275400000000     0.0346749  
H23      H      0.578640000000     0.295850000000     0.342620000000     0.0348533  
H24      H      0.571090000000     0.349040000000     0.289910000000     0.03509    
H25      H      0.542810000000     0.168040000000     0.303390000000     0.0546635  
H26      H      0.545020000000     0.115590000000     0.356590000000     0.0107117  
H27      H      0.544390000000     0.209140000000     0.450000000000     0.0129966  
H28      H      0.541370000000     0.262230000000     0.397520000000     0.0553165  
H29      H      0.537390000000     0.855090000000     0.448340000000     0.0162684  
H30      H      0.535240000000     0.802420000000     0.395470000000     0.0559486  
H31      H      0.528860000000     0.897370000000     0.302260000000     0.0566505  
H32      H      0.531660000000     0.949420000000     0.355650000000     0.00856972 
H33      H      0.484750000000     0.775760000000     0.344950000000     0.035047   
H34      H      0.480730000000     0.722930000000     0.291420000000     0.0351458  
H35      H      0.568970000000     0.790900000000     0.217830000000     0.0362553  
H36      H      0.572940000000     0.843720000000     0.271310000000     0.0359341  
H37      H      0.525200000000     0.669350000000     0.261300000000     0.0559472  
H38      H      0.524820000000     0.616790000000     0.208330000000     0.00946638 
H39      H      0.519990000000     0.710190000000     0.114660000000     0.0175705  
H40      H      0.519650000000     0.763350000000     0.167060000000     0.0557323  
H41      H      0.527600000000     0.856850000000     0.613400000000     0.0193728  
H42      H      0.528000000000     0.803400000000     0.665630000000     0.054302   
H43      H      0.527920000000     0.897130000000     0.760220000000     0.0554728  
H44      H      0.528450000000     0.949850000000     0.707350000000     0.0223263  
H45      H      0.486840000000     0.771380000000     0.718420000000     0.0364095  
H46      H      0.488140000000     0.718060000000     0.771540000000     0.0365081  
H47      H      0.572440000000     0.792040000000     0.843740000000     0.0371798  
H48      H      0.571320000000     0.845260000000     0.790590000000     0.0373035  
H49      H      0.532680000000     0.666270000000     0.802660000000     0.0542708  
H50      H      0.532440000000     0.614010000000     0.856150000000     0.0193558  
H51      H      0.529680000000     0.708050000000     0.949050000000     0.0224904  
H52      H      0.529250000000     0.760900000000     0.896250000000     0.0555029  
H53      H      0.536960000000     0.209070000000     0.616090000000     0.00979191 
H54      H      0.536780000000     0.262040000000     0.668660000000     0.0560966  
H55      H      0.541360000000     0.167680000000     0.762610000000     0.0558206  
H56      H      0.540730000000     0.115320000000     0.709450000000     0.0178054  
H57      H      0.581310000000     0.291860000000     0.722040000000     0.0354872  
H58      H      0.578000000000     0.345350000000     0.774970000000     0.0355643  
H59      H      0.489820000000     0.272180000000     0.843430000000     0.035942   
H60      H      0.492970000000     0.218790000000     0.790480000000     0.0360956  
H61      H      0.527430000000     0.396050000000     0.801930000000     0.0562099  
H62      H      0.525560000000     0.448920000000     0.854600000000     0.0163634  
H63      H      0.532550000000     0.356240000000     0.948860000000     0.00878318 
H64      H      0.535010000000     0.302830000000     0.896770000000     0.0569443  
H65      H      0.853480000000     0.450670000000     0.514130000000     0.0166425  
H66      H      0.799830000000     0.399030000000     0.507730000000     0.0556672  
H67      H      0.892480000000     0.303420000000     0.513290000000     0.0565124  
H68      H      0.945560000000     0.355760000000     0.518960000000     0.0110121  
H69      H      0.767190000000     0.346240000000     0.549980000000     0.0358378  
H70      H      0.714030000000     0.293110000000     0.548080000000     0.0350931  
H71      H      0.788410000000     0.221670000000     0.463390000000     0.0351591  
H72      H      0.841750000000     0.274940000000     0.465380000000     0.0359838  
H73      H      0.662680000000     0.261820000000     0.503560000000     0.0555787  
H74      H      0.611070000000     0.208130000000     0.509220000000     0.0139845  
H75      H      0.706120000000     0.116110000000     0.512610000000     0.0133848  
H76      H      0.758440000000     0.169240000000     0.507800000000     0.0558354  
H77      H      0.950630000000     0.707930000000     0.536380000000     0.0198371  
H78      H      0.898390000000     0.761350000000     0.534360000000     0.0555707  
H79      H      0.803670000000     0.667670000000     0.532510000000     0.0546279  
H80      H      0.856490000000     0.614910000000     0.533840000000     0.0181596  
H81      H      0.843320000000     0.791930000000     0.575600000000     0.036747   
H82      H      0.790250000000     0.845240000000     0.571910000000     0.0362844  
H83      H      0.723890000000     0.773040000000     0.481430000000     0.0355823  
H84      H      0.776920000000     0.719720000000     0.485170000000     0.0356768  
H85      H      0.762640000000     0.897470000000     0.525520000000     0.0567843  
H86      H      0.709180000000     0.949710000000     0.525040000000     0.0110874  
H87      H      0.616080000000     0.855730000000     0.521500000000     0.0165433  
H88      H      0.668860000000     0.802830000000     0.522760000000     0.0559039  
H89      H      0.111350000000     0.356490000000     0.508700000000     0.0136462  
H90      H      0.163020000000     0.302820000000     0.503550000000     0.0552316  
H91      H      0.258720000000     0.395350000000     0.509590000000     0.055776   
H92      H      0.206340000000     0.448490000000     0.513890000000     0.0136134  
H93      H      0.213690000000     0.271660000000     0.549170000000     0.0349973  
H94      H      0.266790000000     0.218510000000     0.551920000000     0.0354909  
H95      H      0.342490000000     0.289580000000     0.468120000000     0.0354185  
H96      H      0.289220000000     0.342880000000     0.465330000000     0.0349293  
H97      H      0.299860000000     0.165650000000     0.510170000000     0.0550823  
H98      H      0.353410000000     0.113940000000     0.516810000000     0.0161983  
H99      H      0.445540000000     0.208750000000     0.522580000000     0.00960119 
H100     H      0.392560000000     0.261160000000     0.516700000000     0.0558319  
H101     H      0.209280000000     0.614830000000     0.529440000000     0.00914068 
H102     H      0.262640000000     0.667160000000     0.530870000000     0.0559512  
H103     H      0.168810000000     0.761660000000     0.526340000000     0.055847   
H104     H      0.116070000000     0.708690000000     0.525550000000     0.0162894  
H105     H      0.293910000000     0.720550000000     0.487630000000     0.0350326  
H106     H      0.347210000000     0.773700000000     0.490410000000     0.0353468  
H107     H      0.273270000000     0.843170000000     0.577100000000     0.0365151  
H108     H      0.219940000000     0.790090000000     0.574190000000     0.0360347  
H109     H      0.398610000000     0.803000000000     0.536630000000     0.0545237  
H110     H      0.450800000000     0.856480000000     0.536520000000     0.0180965  
H111     H      0.356510000000     0.949370000000     0.535160000000     0.0194998  
H112     H      0.303760000000     0.896570000000     0.534440000000     0.0553051  
H113     H      0.617370000000     0.524940000000     0.206880000000     0.00865661 
H114     H      0.670450000000     0.523710000000     0.259220000000     0.05642    
H115     H      0.763640000000     0.524970000000     0.163950000000     0.0562438  
H116     H      0.709780000000     0.525340000000     0.112080000000     0.0156448  
H117     H      0.722620000000     0.571080000000     0.285920000000     0.0355047  
H118     H      0.775590000000     0.572440000000     0.339300000000     0.0353259  
H119     H      0.846780000000     0.482380000000     0.271260000000     0.035835   
H120     H      0.793590000000     0.480840000000     0.217810000000     0.0356463  
H121     H      0.803090000000     0.525680000000     0.392700000000     0.0559958  
H122     H      0.855090000000     0.527580000000     0.446180000000     0.0165038  
H123     H      0.950560000000     0.531620000000     0.354510000000     0.00872457 
H124     H      0.899040000000     0.530270000000     0.300350000000     0.0563845  
H125     H      0.208620000000     0.510990000000     0.452900000000     0.0135834  
H126     H      0.262350000000     0.504750000000     0.401250000000     0.0549143  
H127     H      0.169550000000     0.508120000000     0.305750000000     0.0547532  
H128     H      0.116460000000     0.513630000000     0.358110000000     0.0114195  
H129     H      0.295240000000     0.546540000000     0.348850000000     0.0348004  
H130     H      0.348330000000     0.546200000000     0.295630000000     0.0347595  
H131     H      0.274430000000     0.462590000000     0.222500000000     0.034732   
H132     H      0.221160000000     0.463060000000     0.275810000000     0.0347705  
H133     H      0.400510000000     0.504930000000     0.262850000000     0.0549283  
H134     H      0.451970000000     0.510810000000     0.208930000000     0.0137531  
H135     H      0.356770000000     0.510880000000     0.117130000000     0.0133959  
H136     H      0.304600000000     0.505910000000     0.170390000000     0.0547366  
H137     H      0.206660000000     0.518590000000     0.618580000000     0.0100424  
H138     H      0.258870000000     0.513700000000     0.671780000000     0.0562091  
H139     H      0.163040000000     0.511750000000     0.764360000000     0.0555827  
H140     H      0.111500000000     0.517290000000     0.710630000000     0.0177434  
H141     H      0.285420000000     0.465710000000     0.724550000000     0.0357644  
H142     H      0.338840000000     0.465520000000     0.777790000000     0.0357829  
H143     H      0.269890000000     0.556490000000     0.846970000000     0.0361548  
H144     H      0.216600000000     0.556600000000     0.793940000000     0.0362787  
H145     H      0.392030000000     0.512500000000     0.804410000000     0.0564757  
H146     H      0.445390000000     0.517190000000     0.856490000000     0.0161729  
H147     H      0.353340000000     0.517590000000     0.951640000000     0.0105966  
H148     H      0.299450000000     0.512070000000     0.900290000000     0.0571514  
H149     H      0.946770000000     0.535460000000     0.706380000000     0.0223226  
H150     H      0.893720000000     0.537880000000     0.758780000000     0.0554482  
H151     H      0.800590000000     0.539740000000     0.663530000000     0.0540732  
H152     H      0.854510000000     0.538230000000     0.611650000000     0.0191857  
H153     H      0.840740000000     0.495890000000     0.788800000000     0.0370574  
H154     H      0.787590000000     0.496630000000     0.841970000000     0.0364668  
H155     H      0.715880000000     0.582550000000     0.769420000000     0.0364871  
H156     H      0.769260000000     0.582010000000     0.716180000000     0.0364828  
H157     H      0.757990000000     0.541250000000     0.894220000000     0.0556625  
H158     H      0.705400000000     0.539680000000     0.947210000000     0.0203746  
H159     H      0.610810000000     0.538480000000     0.854750000000     0.0184629  
H160     H      0.662880000000     0.539420000000     0.801000000000     0.0541891  
H161     H      0.610230000000     0.709980000000     0.027200000000     0.019559   
H162     H      0.662390000000     0.763660000000     0.026350000000     0.0527166  
H163     H      0.757240000000     0.670280000000     0.021030000000     0.0535382  
H164     H      0.704560000000     0.617350000000     0.022560000000     0.0187267  
H165     H      0.714600000000     0.795980000000     0.982990000000     0.0437359  
H166     H      0.768000000000     0.849200000000     0.983750000000     0.0440754  
H167     H      0.840970000000     0.774720000000     0.066990000000     0.0359175  
H168     H      0.787780000000     0.721580000000     0.066060000000     0.0362505  
H169     H      0.799880000000     0.900860000000     0.026990000000     0.053503   
H170     H      0.853710000000     0.952810000000     0.028730000000     0.018895   
H171     H      0.946200000000     0.858240000000     0.027200000000     0.0193808  
H172     H      0.893180000000     0.805780000000     0.024560000000     0.0540782  
H173     H      0.710530000000     0.453010000000     0.036810000000     0.0157091  
H174     H      0.764280000000     0.401220000000     0.040620000000     0.0547117  
H175     H      0.671260000000     0.305820000000     0.038740000000     0.0547549  
H176     H      0.618120000000     0.358180000000     0.035470000000     0.00662546 
H177     H      0.793870000000     0.346770000000     0.996100000000     0.0428577  
H178     H      0.846860000000     0.293330000000     0.997630000000     0.0434451  
H179     H      0.776840000000     0.226580000000     0.089610000000     0.035186   
H180     H      0.723690000000     0.279990000000     0.087870000000     0.0352527  
H181     H      0.899920000000     0.264640000000     0.042750000000     0.0556548  
H182     H      0.951290000000     0.210520000000     0.039980000000     0.00995561 
H183     H      0.855840000000     0.118800000000     0.042930000000     0.0152179  
H184     H      0.803790000000     0.172310000000     0.044820000000     0.0547946  
H185     H      0.352830000000     0.612230000000     0.045970000000     0.00939469 
H186     H      0.298570000000     0.663180000000     0.052080000000     0.0552295  
H187     H      0.390180000000     0.759900000000     0.048130000000     0.0554141  
H188     H      0.443900000000     0.708300000000     0.042840000000     0.0174339  
H189     H      0.267040000000     0.716130000000     0.008430000000     0.0344732  
H190     H      0.213700000000     0.769160000000     0.009370000000     0.0345069  
H191     H      0.285020000000     0.839400000000     0.097640000000     0.0357205  
H192     H      0.338460000000     0.786200000000     0.096790000000     0.035853   
H193     H      0.161320000000     0.799930000000     0.055050000000     0.055513   
H194     H      0.110160000000     0.854110000000     0.049610000000     0.0154678  
H195     H      0.206170000000     0.945160000000     0.044560000000     0.0099058  
H196     H      0.257940000000     0.891560000000     0.049350000000     0.0566242  
H197     H      0.116070000000     0.206160000000     0.052890000000     0.0136729  
H198     H      0.168720000000     0.258720000000     0.058780000000     0.0540992  
H199     H      0.262580000000     0.164250000000     0.054710000000     0.0538275  
H200     H      0.209040000000     0.112140000000     0.049770000000     0.0127712  
H201     H      0.220480000000     0.290690000000     0.016690000000     0.0335702  
H202     H      0.273480000000     0.343880000000     0.017390000000     0.0336647  
H203     H      0.347910000000     0.269050000000     0.098960000000     0.0342633  
H204     H      0.294600000000     0.215630000000     0.098370000000     0.0345079  
H205     H      0.304800000000     0.395090000000     0.061380000000     0.0543576  
H206     H      0.357250000000     0.447980000000     0.056300000000     0.0132023  
H207     H      0.451600000000     0.355450000000     0.051070000000     0.0102927  
H208     H      0.399600000000     0.301690000000     0.055350000000     0.0539667  
H209     H      0.615170000000     0.039320000000     0.709830000000     0.0179507  
H210     H      0.667760000000     0.037920000000     0.762860000000     0.0546801  
H211     H      0.761910000000     0.039550000000     0.668590000000     0.0544708  
H212     H      0.708620000000     0.040170000000     0.616160000000     0.00995829 
H213     H      0.721760000000     0.080190000000     0.793570000000     0.0361036  
H214     H      0.774800000000     0.076710000000     0.846910000000     0.0369847  
H215     H      0.843180000000     0.988860000000     0.773340000000     0.0430562  
H216     H      0.790130000000     0.992330000000     0.720010000000     0.0423688  
H217     H      0.803020000000     0.029380000000     0.898310000000     0.0546855  
H218     H      0.856270000000     0.028600000000     0.950730000000     0.0199539  
H219     H      0.949740000000     0.029690000000     0.857040000000     0.0209273  
H220     H      0.897170000000     0.031210000000     0.804060000000     0.0540519  
H221     H      0.208780000000     0.034410000000     0.948120000000     0.011578   
H222     H      0.262020000000     0.032750000000     0.895650000000     0.0556845  
H223     H      0.167850000000     0.033880000000     0.801410000000     0.0539299  
H224     H      0.115280000000     0.034930000000     0.854480000000     0.0175816  
H225     H      0.292100000000     0.075910000000     0.841500000000     0.0361001  
H226     H      0.345320000000     0.073450000000     0.788310000000     0.0363906  
H227     H      0.273190000000     0.984040000000     0.720380000000     0.042541   
H228     H      0.219890000000     0.986640000000     0.773540000000     0.0426271  
H229     H      0.397520000000     0.027530000000     0.760270000000     0.0539706  
H230     H      0.449990000000     0.027900000000     0.707190000000     0.01959    
H231     H      0.356380000000     0.025790000000     0.613640000000     0.0178688  
H232     H      0.303220000000     0.026250000000     0.666140000000     0.0531302  
H233     H      0.206950000000     0.051500000000     0.113360000000     0.0127234  
H234     H      0.260200000000     0.054760000000     0.165620000000     0.0548023  
H235     H      0.166250000000     0.054190000000     0.260080000000     0.0546698  
H236     H      0.113560000000     0.051640000000     0.207100000000     0.0103162  
H237     H      0.288090000000     0.007650000000     0.217330000000     0.0335466  
H238     H      0.340810000000     0.003440000000     0.270750000000     0.0336592  
H239     H      0.273750000000     0.092640000000     0.343910000000     0.0352152  
H240     H      0.220800000000     0.096740000000     0.290380000000     0.0342745  
H241     H      0.395550000000     0.043420000000     0.302140000000     0.0541871  
H242     H      0.447400000000     0.037520000000     0.355540000000     0.00708772 
H243     H      0.353120000000     0.040020000000     0.448360000000     0.0159203  
H244     H      0.300490000000     0.045060000000     0.395510000000     0.0543257  
H245     H      0.853040000000     0.043940000000     0.115810000000     0.0155848  
H246     H      0.800410000000     0.049110000000     0.168630000000     0.0541569  
H247     H      0.895450000000     0.047650000000     0.262020000000     0.0553729  
H248     H      0.947290000000     0.041530000000     0.208650000000     0.008629   
H249     H      0.773010000000     0.095940000000     0.220220000000     0.0350613  
H250     H      0.719970000000     0.099390000000     0.273730000000     0.0346169  
H251     H      0.788400000000     0.011340000000     0.346950000000     0.0343497  
H252     H      0.841160000000     0.007670000000     0.293540000000     0.0344802  
H253     H      0.665960000000     0.055880000000     0.304110000000     0.0548899  
H254     H      0.613310000000     0.052660000000     0.357120000000     0.0104802  
H255     H      0.706690000000     0.054540000000     0.450850000000     0.0129708  
H256     H      0.759880000000     0.058420000000     0.398560000000     0.0554673  
H257     H      0.044140000000     0.112560000000     0.854040000000     0.0173845  
H258     H      0.048130000000     0.164130000000     0.800270000000     0.0550637  
H259     H      0.047000000000     0.259810000000     0.892960000000     0.0560809  
H260     H      0.043720000000     0.207560000000     0.946210000000     0.0111022  
H261     H      0.002160000000     0.217070000000     0.771580000000     0.0350214  
H262     H      0.000860000000     0.270270000000     0.718460000000     0.0346858  
H263     H      0.092250000000     0.340190000000     0.786130000000     0.0359326  
H264     H      0.093580000000     0.286850000000     0.839360000000     0.0359297  
H265     H      0.045020000000     0.300160000000     0.664490000000     0.0553672  
H266     H      0.039810000000     0.354040000000     0.613070000000     0.00936733 
H267     H      0.039030000000     0.445940000000     0.708320000000     0.0174637  
H268     H      0.043510000000     0.392630000000     0.760370000000     0.0553595  
H269     H      0.026420000000     0.947890000000     0.857730000000     0.0212494  
H270     H      0.024700000000     0.894770000000     0.805270000000     0.0534627  
H271     H      0.019830000000     0.801900000000     0.900530000000     0.054453   
H272     H      0.022220000000     0.855760000000     0.952430000000     0.0202119  
H273     H      0.980650000000     0.843170000000     0.774250000000     0.0372169  
H274     H      0.980860000000     0.789940000000     0.721050000000     0.0367644  
H275     H      0.063160000000     0.715900000000     0.795510000000     0.0359106  
H276     H      0.062760000000     0.769050000000     0.848760000000     0.0363125  
H277     H      0.023670000000     0.758850000000     0.669370000000     0.0528192  
H278     H      0.025490000000     0.706170000000     0.616430000000     0.0185698  
H279     H      0.024850000000     0.611840000000     0.709030000000     0.0197517  
H280     H      0.022090000000     0.663830000000     0.762640000000     0.0535224  
H281     H      0.034620000000     0.855700000000     0.117470000000     0.015542   
H282     H      0.036620000000     0.803460000000     0.170660000000     0.0546377  
H283     H      0.034210000000     0.898910000000     0.263530000000     0.0556844  
H284     H      0.032760000000     0.950670000000     0.209650000000     0.0080208  
H285     H      0.990290000000     0.776130000000     0.224560000000     0.0417199  
H286     H      0.991580000000     0.723140000000     0.277930000000     0.0415647  
H287     H      0.083440000000     0.792990000000     0.345080000000     0.0358882  
H288     H      0.081980000000     0.846150000000     0.291680000000     0.0360528  
H289     H      0.038390000000     0.670370000000     0.304640000000     0.0545067  
H290     H      0.037500000000     0.617670000000     0.357380000000     0.00645969 
H291     H      0.039130000000     0.710710000000     0.451500000000     0.0158743  
H292     H      0.039180000000     0.764120000000     0.399300000000     0.0552097  
H293     H      0.050500000000     0.356780000000     0.447950000000     0.0130444  
H294     H      0.055860000000     0.304540000000     0.394800000000     0.0541472  
H295     H      0.059850000000     0.400330000000     0.302370000000     0.0539836  
H296     H      0.053620000000     0.451840000000     0.356170000000     0.0111205  
H297     H      0.100170000000     0.274010000000     0.343490000000     0.0345327  
H298     H      0.100350000000     0.220830000000     0.290120000000     0.0342934  
H299     H      0.018700000000     0.295510000000     0.215610000000     0.033733   
H300     H      0.018480000000     0.348530000000     0.268850000000     0.0335897  
H301     H      0.056000000000     0.169520000000     0.259210000000     0.0539099  
H302     H      0.050880000000     0.116570000000     0.206720000000     0.0109118  
H303     H      0.054800000000     0.208800000000     0.112110000000     0.0128333  
H304     H      0.060770000000     0.262380000000     0.163890000000     0.054117   
N1       N      0.520890000000     0.408010000000     0.157830000000    -0.268298   
N2       N      0.544080000000     0.158240000000     0.407420000000    -0.267068   
N3       N      0.534390000000     0.906190000000     0.406000000000    -0.258886   
N4       N      0.522910000000     0.659540000000     0.157540000000    -0.251188   
N5       N      0.528340000000     0.907520000000     0.656230000000    -0.228318   
N6       N      0.530860000000     0.656890000000     0.906780000000    -0.228077   
N7       N      0.538380000000     0.158250000000     0.658810000000    -0.250628   
N8       N      0.529170000000     0.406590000000     0.905670000000    -0.25896    
N9       N      0.903580000000     0.407190000000     0.517320000000    -0.255265   
N10      N      0.654630000000     0.158060000000     0.512150000000    -0.266062   
N11      N      0.907640000000     0.657310000000     0.534820000000    -0.236695   
N12      N      0.658560000000     0.906730000000     0.523620000000    -0.255183   
N13      N      0.154870000000     0.406530000000     0.512520000000    -0.266178   
N14      N      0.403530000000     0.157370000000     0.520410000000    -0.256174   
N15      N      0.158620000000     0.657740000000     0.527760000000    -0.256027   
N16      N      0.407720000000     0.907030000000     0.535500000000    -0.23734    
N17      N      0.659570000000     0.525680000000     0.155560000000    -0.259528   
N18      N      0.906730000000     0.529850000000     0.404400000000    -0.257911   
N19      N      0.158400000000     0.513390000000     0.409550000000    -0.266118   
N20      N      0.408390000000     0.511940000000     0.158870000000    -0.264172   
N21      N      0.155200000000     0.518740000000     0.660600000000    -0.250117   
N22      N      0.403380000000     0.518210000000     0.907920000000    -0.25855    
N23      N      0.904830000000     0.536360000000     0.654910000000    -0.228511   
N24      N      0.653990000000     0.538630000000     0.905180000000    -0.234586   
N25      N      0.653290000000     0.659490000000     0.025360000000    -0.228363   
N26      N      0.904140000000     0.909630000000     0.028430000000    -0.234334   
N27      N      0.660290000000     0.409530000000     0.035840000000    -0.258067   
N28      N      0.907440000000     0.160610000000     0.040900000000    -0.257226   
N29      N      0.402410000000     0.656420000000     0.043680000000    -0.249687   
N30      N      0.154310000000     0.903660000000     0.046280000000    -0.257676   
N31      N      0.158430000000     0.155090000000     0.050220000000    -0.261762   
N32      N      0.408450000000     0.405860000000     0.052540000000    -0.266695   
N33      N      0.657860000000     0.039440000000     0.658960000000    -0.246698   
N34      N      0.907090000000     0.029460000000     0.907960000000    -0.230488   
N35      N      0.157990000000     0.034490000000     0.905340000000    -0.246432   
N36      N      0.407240000000     0.027290000000     0.656330000000    -0.231134   
N37      N      0.156220000000     0.050410000000     0.156240000000    -0.268527   
N38      N      0.404260000000     0.038310000000     0.406030000000    -0.255616   
N39      N      0.904170000000     0.042160000000     0.158150000000    -0.255022   
N40      N      0.655980000000     0.052390000000     0.407990000000    -0.268879   
N41      N      0.043220000000     0.156190000000     0.904130000000    -0.249012   
N42      N      0.038830000000     0.404000000000     0.656820000000    -0.249883   
N43      N      0.024750000000     0.906040000000     0.909210000000    -0.227424   
N44      N      0.025600000000     0.654870000000     0.658520000000    -0.227603   
N45      N      0.033430000000     0.907110000000     0.159530000000    -0.257712   
N46      N      0.037960000000     0.660190000000     0.408400000000    -0.257995   
N47      N      0.050980000000     0.408350000000     0.406210000000    -0.265202   
N48      N      0.051760000000     0.158560000000     0.155350000000    -0.264736   
O1       O      0.044070000000     0.139900000000     0.086110000000    -1.03147    
O2       O      0.032180000000     0.923920000000     0.089670000000    -0.79783    
O3       O      0.973840000000     0.036620000000     0.139690000000    -1.01191    
O4       O      0.086880000000     0.042600000000     0.138430000000    -1.07156    
O5       O      0.138380000000     0.042090000000     0.087130000000    -1.05058    
O6       O      0.921850000000     0.038540000000     0.088320000000    -0.791579   
O7       O      0.031500000000     0.976580000000     0.140370000000    -1.01889    
O8       O      0.041830000000     0.089210000000     0.138090000000    -1.0603     
O9       O      0.075360000000     0.992650000000     0.077320000000    -2.07191    
O10      O      0.992560000000     0.078560000000     0.076060000000    -2.07809    
O11      O      0.985760000000     0.989250000000     0.079710000000    -0.849378   
O12      O      0.040510000000     0.041190000000     0.040720000000    -2.56186    
O13      O      0.026910000000     0.925190000000     0.979120000000    -0.706217   
O14      O      0.038620000000     0.139170000000     0.974030000000    -0.931497   
O15      O      0.923170000000     0.979470000000     0.031420000000    -0.734262   
O16      O      0.138050000000     0.973510000000     0.039020000000    -0.948292   
O17      O      0.139540000000     0.085880000000     0.041850000000    -1.02677    
O18      O      0.924150000000     0.090640000000     0.038140000000    -0.777166   
O19      O      0.977080000000     0.031590000000     0.925660000000    -0.589388   
O20      O      0.088190000000     0.033470000000     0.923380000000    -0.632064   
O21      O      0.925120000000     0.031210000000     0.977860000000    -0.716574   
O22      O      0.139590000000     0.033500000000     0.975220000000    -0.926714   
O23      O      0.974450000000     0.926460000000     0.031870000000    -0.736463   
O24      O      0.976730000000     0.141260000000     0.035860000000    -0.94603    
O25      O      0.088850000000     0.138120000000     0.041900000000    -1.03324    
O26      O      0.085210000000     0.923160000000     0.041060000000    -0.777193   
O27      O      0.029820000000     0.976230000000     0.926200000000    -0.583935   
O28      O      0.037440000000     0.087060000000     0.922920000000    -0.636579   
O29      O      0.076740000000     0.075230000000     0.992520000000    -1.97323    
O30      O      0.993170000000     0.995170000000     0.994630000000    -1.59671    
O31      O      0.987180000000     0.075850000000     0.986980000000    -1.24196    
O32      O      0.073920000000     0.985610000000     0.988270000000    -1.2466     
O33      O      0.041830000000     0.425280000000     0.475710000000    -1.03733    
O34      O      0.036410000000     0.641680000000     0.477880000000    -0.790724   
O35      O      0.976130000000     0.532310000000     0.423930000000    -1.01603    
O36      O      0.088890000000     0.522780000000     0.426620000000    -1.06349    
O37      O      0.139530000000     0.521100000000     0.478720000000    -1.0534     
O38      O      0.923200000000     0.530280000000     0.474370000000    -0.803409   
O39      O      0.034950000000     0.590370000000     0.425840000000    -1.02222    
O40      O      0.042660000000     0.477470000000     0.425190000000    -1.06181    
O41      O      0.077530000000     0.571600000000     0.489040000000    -2.09596    
O42      O      0.992150000000     0.487890000000     0.486440000000    -2.09251    
O43      O      0.988130000000     0.577250000000     0.485360000000    -0.861549   
O44      O      0.040470000000     0.522880000000     0.523710000000    -2.57478    
O45      O      0.028760000000     0.637440000000     0.588250000000    -0.706278   
O46      O      0.034920000000     0.423180000000     0.587480000000    -0.943143   
O47      O      0.925000000000     0.587290000000     0.532290000000    -0.749885   
O48      O      0.140050000000     0.587960000000     0.530380000000    -0.959924   
O49      O      0.137830000000     0.475760000000     0.522340000000    -1.05797    
O50      O      0.922510000000     0.476590000000     0.522810000000    -0.778774   
O51      O      0.975050000000     0.531560000000     0.638100000000    -0.583322   
O52      O      0.086030000000     0.525000000000     0.641750000000    -0.632635   
O53      O      0.924060000000     0.534610000000     0.585060000000    -0.718573   
O54      O      0.138300000000     0.524550000000     0.590750000000    -0.951856   
O55      O      0.977590000000     0.639010000000     0.533940000000    -0.731324   
O56      O      0.973460000000     0.424370000000     0.524620000000    -0.944232   
O57      O      0.085770000000     0.424880000000     0.520560000000    -1.04774    
O58      O      0.088720000000     0.639820000000     0.528470000000    -0.767926   
O59      O      0.029480000000     0.584970000000     0.639860000000    -0.583738   
O60      O      0.033830000000     0.473760000000     0.640110000000    -0.633052   
O61      O      0.074650000000     0.486590000000     0.571380000000    -1.99618    
O62      O      0.993630000000     0.568980000000     0.570230000000    -1.60644    
O63      O      0.985050000000     0.488170000000     0.575650000000    -1.25671    
O64      O      0.074450000000     0.575910000000     0.578410000000    -1.24285    
O65      O      0.638280000000     0.044210000000     0.477150000000    -1.05059    
O66      O      0.421930000000     0.035420000000     0.475870000000    -0.788676   
O67      O      0.532600000000     0.975760000000     0.424580000000    -1.02462    
O68      O      0.539530000000     0.088650000000     0.425640000000    -1.06631    
O69      O      0.539910000000     0.140020000000     0.477020000000    -1.05271    
O70      O      0.535150000000     0.923610000000     0.475730000000    -0.807636   
O71      O      0.473990000000     0.034090000000     0.424580000000    -1.01399    
O72      O      0.586790000000     0.043350000000     0.425860000000    -1.07955    
O73      O      0.491450000000     0.077230000000     0.487710000000    -2.1098     
O74      O      0.576680000000     0.993460000000     0.487400000000    -2.08655    
O75      O      0.487160000000     0.987830000000     0.485090000000    -0.863683   
O76      O      0.540240000000     0.041610000000     0.523550000000    -2.57901    
O77      O      0.425230000000     0.029130000000     0.586400000000    -0.718995   
O78      O      0.639480000000     0.037650000000     0.589100000000    -0.929637   
O79      O      0.477580000000     0.925340000000     0.533160000000    -0.749493   
O80      O      0.473420000000     0.140090000000     0.527170000000    -0.956889   
O81      O      0.585630000000     0.139620000000     0.520980000000    -1.06515    
O82      O      0.588620000000     0.924590000000     0.525360000000    -0.779022   
O83      O      0.531340000000     0.977660000000     0.638630000000    -0.579201   
O84      O      0.535560000000     0.088730000000     0.640800000000    -0.634325   
O85      O      0.529790000000     0.926000000000     0.586220000000    -0.718721   
O86      O      0.535260000000     0.140280000000     0.589110000000    -0.955767   
O87      O      0.424980000000     0.977080000000     0.533070000000    -0.739745   
O88      O      0.639950000000     0.976460000000     0.527230000000    -0.940799   
O89      O      0.637700000000     0.088730000000     0.521550000000    -1.04121    
O90      O      0.422430000000     0.087910000000     0.525070000000    -0.769972   
O91      O      0.477110000000     0.031300000000     0.638610000000    -0.590672   
O92      O      0.588080000000     0.036680000000     0.640920000000    -0.627892   
O93      O      0.575470000000     0.077250000000     0.571300000000    -1.99345    
O94      O      0.494340000000     0.994770000000     0.569980000000    -1.60768    
O95      O      0.575140000000     0.987610000000     0.576640000000    -1.25567    
O96      O      0.485850000000     0.075400000000     0.576860000000    -1.24908    
O97      O      0.425150000000     0.475490000000     0.044780000000    -1.05176    
O98      O      0.641300000000     0.478900000000     0.033730000000    -0.792615   
O99      O      0.531260000000     0.425190000000     0.975210000000    -1.02408    
O100     O      0.525100000000     0.426180000000     0.088210000000    -1.07442    
O101     O      0.523980000000     0.477640000000     0.139490000000    -1.07048    
O102     O      0.527650000000     0.476310000000     0.923060000000    -0.805796   
O103     O      0.590270000000     0.426520000000     0.032970000000    -1.02426    
O104     O      0.477440000000     0.425070000000     0.042880000000    -1.07181    
O105     O      0.572060000000     0.489240000000     0.076300000000    -2.11323    
O106     O      0.486340000000     0.487170000000     0.993310000000    -2.0964     
O107     O      0.575700000000     0.486590000000     0.986930000000    -0.861831   
O108     O      0.522270000000     0.523920000000     0.041180000000    -2.5877     
O109     O      0.636170000000     0.589230000000     0.027470000000    -0.712682   
O110     O      0.422030000000     0.587260000000     0.038750000000    -0.945274   
O111     O      0.584110000000     0.534800000000     0.924080000000    -0.741825   
O112     O      0.589580000000     0.529230000000     0.138740000000    -0.976966   
O113     O      0.477400000000     0.521300000000     0.139790000000    -1.06649    
O114     O      0.473180000000     0.524110000000     0.924750000000    -0.784064   
O115     O      0.528400000000     0.639320000000     0.976930000000    -0.576648   
O116     O      0.525440000000     0.641540000000     0.088010000000    -0.628862   
O117     O      0.530560000000     0.586870000000     0.925330000000    -0.71977    
O118     O      0.526790000000     0.589870000000     0.139560000000    -0.962651   
O119     O      0.637030000000     0.535820000000     0.975440000000    -0.73077    
O120     O      0.422310000000     0.524850000000     0.977110000000    -0.9569     
O121     O      0.425090000000     0.520270000000     0.089200000000    -1.04212    
O122     O      0.640310000000     0.528460000000     0.086250000000    -0.773213   
O123     O      0.583490000000     0.640600000000     0.030130000000    -0.580309   
O124     O      0.472270000000     0.640240000000     0.037190000000    -0.62712    
O125     O      0.486580000000     0.571160000000     0.076870000000    -2.01108    
O126     O      0.567020000000     0.571460000000     0.993730000000    -1.60441    
O127     O      0.485900000000     0.576370000000     0.987380000000    -1.2461     
O128     O      0.575880000000     0.578480000000     0.074360000000    -1.23544    
Tb1      Tb     0.030630000000     0.032800000000     0.102250000000     6.35693    
Tb2      Tb     0.031390000000     0.963350000000     0.035640000000     4.33717    
Tb3      Tb     0.032330000000     0.102610000000     0.030930000000     6.17407    
Tb4      Tb     0.962240000000     0.035120000000     0.034730000000     4.34239    
Tb5      Tb     0.101790000000     0.030450000000     0.031850000000     6.20042    
Tb6      Tb     0.033720000000     0.033350000000     0.963000000000     3.1789     
Tb7      Tb     0.032200000000     0.533200000000     0.462310000000     6.35449    
Tb8      Tb     0.033610000000     0.600790000000     0.530840000000     4.29335    
Tb9      Tb     0.030180000000     0.461450000000     0.531630000000     6.23809    
Tb10     Tb     0.962380000000     0.530860000000     0.528650000000     4.40892    
Tb11     Tb     0.101850000000     0.531720000000     0.533860000000     6.36133    
Tb12     Tb     0.032310000000     0.528720000000     0.601530000000     3.16015    
Tb13     Tb     0.530820000000     0.032260000000     0.462100000000     6.38431    
Tb14     Tb     0.462320000000     0.033540000000     0.529520000000     4.33623    
Tb15     Tb     0.601810000000     0.032590000000     0.532540000000     6.21587    
Tb16     Tb     0.533500000000     0.963560000000     0.529370000000     4.4138     
Tb17     Tb     0.530220000000     0.102930000000     0.532660000000     6.36126    
Tb18     Tb     0.533630000000     0.034510000000     0.601280000000     3.15405    
Tb19     Tb     0.532790000000     0.462720000000     0.031740000000     6.40324    
Tb20     Tb     0.600020000000     0.531640000000     0.032280000000     4.31449    
Tb21     Tb     0.460570000000     0.531680000000     0.032690000000     6.27345    
Tb22     Tb     0.528440000000     0.529980000000     0.962970000000     4.40781    
Tb23     Tb     0.532510000000     0.533390000000     0.102310000000     6.45653    
Tb24     Tb     0.527480000000     0.601980000000     0.033800000000     3.11674    


