data_structure

_audit_creation_method RASPA-1.0
_audit_creation_date 2023-5-19
_audit_author_name 'Poobodin Mano'

_cell_length_a    20.2287
_cell_length_b    20.2424
_cell_length_c    20.2392
_cell_angle_alpha 90
_cell_angle_beta  90
_cell_angle_gamma 90
_cell_volume      8287.5

_symmetry_cell_setting          triclinic
_symmetry_space_group_name_Hall 'P 1'
_symmetry_space_group_name_H-M  'P 1'
_symmetry_Int_Tables_number     1

_symmetry_equiv_pos_as_xyz 'x,y,z'

loop_
_atom_site_label
_atom_site_type_symbol
_atom_site_fract_x
_atom_site_fract_y
_atom_site_fract_z
_atom_site_charge
C1       C      0.028510000000     0.160750000000     0.162400000000     0.724629   
C2       C      0.013320000000     0.852590000000     0.161970000000     0.693043   
C3       C      0.852390000000     0.016630000000     0.163450000000     0.680757   
C4       C      0.160520000000     0.025120000000     0.161610000000     0.75402    
C5       C      0.002670000000     0.856870000000     0.857140000000     0.563854   
C6       C      0.018900000000     0.161090000000     0.855730000000     0.669232   
C7       C      0.855040000000     0.857090000000     0.009210000000     0.57343    
C8       C      0.161880000000     0.854250000000     0.020640000000     0.716484   
C9       C      0.162360000000     0.161080000000     0.021020000000     0.746303   
C10      C      0.856160000000     0.163310000000     0.017550000000     0.722588   
C11      C      0.856560000000     0.007540000000     0.859660000000     0.564955   
C12      C      0.161320000000     0.012720000000     0.852980000000     0.660656   
C13      C      0.027610000000     0.354400000000     0.359210000000     0.725307   
C14      C      0.015500000000     0.662940000000     0.357990000000     0.681573   
C15      C      0.854380000000     0.506650000000     0.356260000000     0.671624   
C16      C      0.162320000000     0.489650000000     0.360850000000     0.739349   
C17      C      0.003790000000     0.660080000000     0.663040000000     0.553247   
C18      C      0.017280000000     0.355820000000     0.665900000000     0.670677   
C19      C      0.857660000000     0.660250000000     0.511280000000     0.585838   
C20      C      0.163240000000     0.662950000000     0.504360000000     0.688944   
C21      C      0.159800000000     0.356080000000     0.491740000000     0.726279   
C22      C      0.853070000000     0.355600000000     0.497180000000     0.684371   
C23      C      0.856740000000     0.511080000000     0.660970000000     0.579888   
C24      C      0.163190000000     0.495720000000     0.666310000000     0.663096   
C25      C      0.661280000000     0.025160000000     0.360090000000     0.734917   
C26      C      0.353770000000     0.014660000000     0.356150000000     0.672703   
C27      C      0.514810000000     0.852210000000     0.358390000000     0.673942   
C28      C      0.524290000000     0.160460000000     0.359190000000     0.741789   
C29      C      0.356750000000     0.005790000000     0.660900000000     0.569867   
C30      C      0.662440000000     0.017640000000     0.666360000000     0.659963   
C31      C      0.358150000000     0.855670000000     0.512130000000     0.600998   
C32      C      0.352100000000     0.160920000000     0.495680000000     0.700946   
C33      C      0.659960000000     0.160990000000     0.491930000000     0.73588    
C34      C      0.664030000000     0.854840000000     0.505050000000     0.698138   
C35      C      0.502230000000     0.858830000000     0.663380000000     0.559663   
C36      C      0.509200000000     0.164040000000     0.665480000000     0.644176   
C37      C      0.357840000000     0.354390000000     0.999910000000     0.739631   
C38      C      0.355440000000     0.662470000000     0.012980000000     0.681067   
C39      C      0.355910000000     0.497690000000     0.167180000000     0.686095   
C40      C      0.357200000000     0.489730000000     0.860130000000     0.73323    
C41      C      0.661100000000     0.660730000000     0.013880000000     0.566838   
C42      C      0.664440000000     0.356090000000     0.002380000000     0.666297   
C43      C      0.513730000000     0.658090000000     0.164880000000     0.598226   
C44      C      0.496990000000     0.665670000000     0.859060000000     0.691787   
C45      C      0.492680000000     0.357560000000     0.858660000000     0.749998   
C46      C      0.507190000000     0.352880000000     0.165020000000     0.705121   
C47      C      0.660540000000     0.510560000000     0.162350000000     0.578377   
C48      C      0.664140000000     0.505020000000     0.856380000000     0.644902   
C49      C      0.520520000000     0.273590000000     0.327010000000     0.0476233  
C50      C      0.524540000000     0.190580000000     0.245620000000    -0.0101491  
C51      C      0.513990000000     0.321500000000     0.277890000000     0.0396907  
C52      C      0.518680000000     0.238360000000     0.196080000000     0.209339   
C53      C      0.514200000000     0.820320000000     0.245060000000     0.0453654  
C54      C      0.520400000000     0.738910000000     0.327890000000    -0.0151443  
C55      C      0.514260000000     0.771150000000     0.196710000000     0.0378813  
C56      C      0.520940000000     0.689410000000     0.279750000000     0.20426    
C57      C      0.497770000000     0.745530000000     0.696200000000     0.0262908  
C58      C      0.495760000000     0.828810000000     0.777210000000    -0.0258351  
C59      C      0.496140000000     0.697370000000     0.745750000000     0.0601517  
C60      C      0.494430000000     0.780820000000     0.827180000000     0.212616   
C61      C      0.502870000000     0.277520000000     0.696660000000     0.0377672  
C62      C      0.497260000000     0.194700000000     0.778120000000    -0.0278087  
C63      C      0.496630000000     0.325950000000     0.745480000000     0.0546318  
C64      C      0.490010000000     0.242770000000     0.827080000000     0.217437   
C65      C      0.739610000000     0.323780000000     0.489620000000     0.0302733  
C66      C      0.822750000000     0.242490000000     0.488900000000    -0.0137704  
C67      C      0.691270000000     0.274380000000     0.487460000000     0.0537898  
C68      C      0.774780000000     0.192890000000     0.486110000000     0.20681    
C69      C      0.744200000000     0.692460000000     0.508190000000     0.0333171  
C70      C      0.827230000000     0.773860000000     0.510790000000    -0.0242995  
C71      C      0.695880000000     0.741730000000     0.505650000000     0.0524757  
C72      C      0.779130000000     0.823480000000     0.508770000000     0.218642   
C73      C      0.272960000000     0.323450000000     0.486790000000     0.0433496  
C74      C      0.189500000000     0.242460000000     0.485340000000    -0.00760798 
C75      C      0.320980000000     0.273930000000     0.488510000000     0.0528466  
C76      C      0.237310000000     0.192560000000     0.487360000000     0.205212   
C77      C      0.195640000000     0.776150000000     0.504110000000     0.0401109  
C78      C      0.276700000000     0.692900000000     0.509840000000    -0.00509574 
C79      C      0.244970000000     0.824280000000     0.507310000000     0.0425644  
C80      C      0.326320000000     0.740770000000     0.513590000000     0.198983   
C81      C      0.822840000000     0.513240000000     0.242840000000     0.0500096  
C82      C      0.741330000000     0.501990000000     0.325100000000    -0.0154522  
C83      C      0.773640000000     0.514630000000     0.194380000000     0.0350059  
C84      C      0.691960000000     0.502300000000     0.276930000000     0.201579   
C85      C      0.275900000000     0.487530000000     0.329290000000     0.0483756  
C86      C      0.193150000000     0.483440000000     0.247610000000    -0.0109363  
C87      C      0.324310000000     0.490480000000     0.280160000000     0.0400345  
C88      C      0.241350000000     0.485910000000     0.198160000000     0.20568    
C89      C      0.243460000000     0.486710000000     0.828610000000     0.0507536  
C90      C      0.326170000000     0.483060000000     0.746950000000    -0.0102027  
C91      C      0.194940000000     0.489100000000     0.779410000000     0.0372019  
C92      C      0.277990000000     0.485860000000     0.697460000000     0.207263   
C93      C      0.777280000000     0.506440000000     0.823610000000     0.0351719  
C94      C      0.693770000000     0.507760000000     0.742640000000    -0.00677859 
C95      C      0.825300000000     0.508800000000     0.774150000000     0.0408364  
C96      C      0.741610000000     0.509790000000     0.692750000000     0.200552   
C97      C      0.741090000000     0.824320000000     0.011990000000     0.0324012  
C98      C      0.824250000000     0.743320000000     0.009120000000    -0.0180315  
C99      C      0.692690000000     0.774590000000     0.013950000000     0.0429959  
C100     C      0.776230000000     0.693360000000     0.010610000000     0.202403   
C101     C      0.695210000000     0.243180000000     0.007450000000     0.047786   
C102     C      0.777310000000     0.325900000000     0.006010000000    -0.0262947  
C103     C      0.743770000000     0.195040000000     0.013170000000     0.0477437  
C104     C      0.826260000000     0.277980000000     0.011170000000     0.221263   
C105     C      0.241980000000     0.692890000000     0.015580000000     0.0445669  
C106     C      0.324580000000     0.774840000000     0.021690000000    -0.0200543  
C107     C      0.193430000000     0.741530000000     0.018530000000     0.0451393  
C108     C      0.276390000000     0.823610000000     0.025830000000     0.217829   
C109     C      0.325390000000     0.240840000000     0.007940000000     0.0389757  
C110     C      0.244100000000     0.323750000000     0.005290000000    -0.0142825  
C111     C      0.276010000000     0.192740000000     0.015480000000     0.0497973  
C112     C      0.194500000000     0.276050000000     0.013650000000     0.207574   
C113     C      0.742900000000     0.008540000000     0.828230000000     0.0352503  
C114     C      0.825620000000     0.014880000000     0.746650000000    -0.0268963  
C115     C      0.694340000000     0.012470000000     0.779320000000     0.0462816  
C116     C      0.777380000000     0.019540000000     0.697530000000     0.218641   
C117     C      0.323930000000     0.006950000000     0.773940000000     0.0251592  
C118     C      0.242970000000     0.008510000000     0.690370000000    -0.0198049  
C119     C      0.274490000000     0.009660000000     0.821910000000     0.0620144  
C120     C      0.193190000000     0.012120000000     0.738120000000     0.205444   
C121     C      0.322730000000     0.020750000000     0.242440000000     0.0366487  
C122     C      0.240940000000     0.025160000000     0.324990000000    -0.0223951  
C123     C      0.273770000000     0.024790000000     0.193790000000     0.0515064  
C124     C      0.191670000000     0.028660000000     0.276690000000     0.214807   
C125     C      0.774420000000     0.020990000000     0.326940000000     0.0400483  
C126     C      0.691110000000     0.033130000000     0.246700000000    -0.00898928 
C127     C      0.822090000000     0.018110000000     0.277040000000     0.0481584  
C128     C      0.738430000000     0.029620000000     0.196440000000     0.199889   
C129     C      0.020670000000     0.193460000000     0.743170000000     0.0278719  
C130     C      0.024750000000     0.274150000000     0.827170000000    -0.00623648 
C131     C      0.020180000000     0.242950000000     0.695700000000     0.0598894  
C132     C      0.023740000000     0.323980000000     0.779990000000     0.20263    
C133     C      0.001550000000     0.693280000000     0.776850000000     0.0300114  
C134     C      0.999020000000     0.774130000000     0.693660000000    -0.0155804  
C135     C      0.001090000000     0.743040000000     0.825280000000     0.0466529  
C136     C      0.999100000000     0.824230000000     0.741800000000     0.205153   
C137     C      0.016600000000     0.775560000000     0.324930000000     0.0315868  
C138     C      0.018150000000     0.691320000000     0.244530000000    -0.00947743 
C139     C      0.015840000000     0.822940000000     0.275170000000     0.0554481  
C140     C      0.018110000000     0.738420000000     0.194460000000     0.204183   
C141     C      0.034140000000     0.274410000000     0.195640000000     0.038934   
C142     C      0.035370000000     0.191160000000     0.276430000000    -0.0128258  
C143     C      0.034010000000     0.322760000000     0.245480000000     0.0476249  
C144     C      0.034640000000     0.239230000000     0.326620000000     0.207176   
H1       H      0.961290000000     0.961630000000     0.059380000000    -1.24318    
H2       H      0.048880000000     0.047720000000     0.049630000000    -1.14631    
H3       H      0.950570000000     0.120070000000     0.951350000000    -0.588406   
H4       H      0.119580000000     0.948330000000     0.951040000000    -0.576833   
H5       H      0.962940000000     0.555150000000     0.461180000000    -1.2373     
H6       H      0.048760000000     0.468430000000     0.471680000000    -1.10791    
H7       H      0.948020000000     0.396570000000     0.569540000000    -0.527736   
H8       H      0.120830000000     0.567060000000     0.571200000000    -0.564641   
H9       H      0.462270000000     0.960970000000     0.461260000000    -1.26524    
H10      H      0.547890000000     0.048580000000     0.471410000000    -1.09667    
H11      H      0.619940000000     0.950390000000     0.570870000000    -0.554198   
H12      H      0.446730000000     0.120430000000     0.568060000000    -0.550136   
H13      H      0.459850000000     0.554550000000     0.059030000000    -1.25091    
H14      H      0.469850000000     0.469100000000     0.971300000000    -1.11948    
H15      H      0.569170000000     0.397330000000     0.068850000000    -0.593541   
H16      H      0.567020000000     0.570090000000     0.899830000000    -0.547948   
H17      H      0.509960000000     0.372490000000     0.293780000000     0.0333122  
H18      H      0.520680000000     0.290100000000     0.377970000000     0.0294007  
H19      H      0.528290000000     0.139330000000     0.230410000000     0.0528022  
H20      H      0.565610000000     0.216540000000     0.118100000000     0.146655   
H21      H      0.511440000000     0.787080000000     0.145650000000     0.033676   
H22      H      0.511580000000     0.871270000000     0.228770000000     0.0252376  
H23      H      0.523260000000     0.723670000000     0.379190000000     0.0638718  
H24      H      0.574110000000     0.616220000000     0.302970000000     0.162803   
H25      H      0.496380000000     0.646170000000     0.730050000000     0.0249198  
H26      H      0.499400000000     0.728880000000     0.645330000000     0.0369712  
H27      H      0.495210000000     0.880230000000     0.792250000000     0.0622785  
H28      H      0.539010000000     0.807660000000     0.904980000000     0.146815   
H29      H      0.497280000000     0.377110000000     0.729620000000     0.0277266  
H30      H      0.507310000000     0.293720000000     0.645800000000     0.0290456  
H31      H      0.496450000000     0.143380000000     0.793520000000     0.0601718  
H32      H      0.433220000000     0.216800000000     0.896610000000     0.144165   
H33      H      0.640020000000     0.290040000000     0.487270000000     0.0272884  
H34      H      0.723240000000     0.374770000000     0.490770000000     0.0334678  
H35      H      0.874160000000     0.227260000000     0.488930000000     0.0499365  
H36      H      0.801320000000     0.119310000000     0.435260000000     0.144534   
H37      H      0.644720000000     0.725910000000     0.503610000000     0.034289   
H38      H      0.727750000000     0.641490000000     0.507790000000     0.0440689  
H39      H      0.878580000000     0.789160000000     0.512600000000     0.0623471  
H40      H      0.803620000000     0.900180000000     0.556450000000     0.161302   
H41      H      0.372240000000     0.289550000000     0.489490000000     0.0269162  
H42      H      0.289640000000     0.374360000000     0.486910000000     0.0373415  
H43      H      0.138050000000     0.227480000000     0.484250000000     0.0684188  
H44      H      0.208580000000     0.116480000000     0.533710000000     0.145083   
H45      H      0.229270000000     0.875460000000     0.505730000000     0.035316   
H46      H      0.144760000000     0.792640000000     0.500720000000     0.0342893  
H47      H      0.291750000000     0.641490000000     0.511400000000     0.0504224  
H48      H      0.398470000000     0.715190000000     0.567370000000     0.146701   
H49      H      0.789370000000     0.520260000000     0.143480000000     0.0447935  
H50      H      0.873830000000     0.517660000000     0.226930000000     0.0293312  
H51      H      0.725980000000     0.496280000000     0.376140000000     0.0588409  
H52      H      0.620680000000     0.445180000000     0.297340000000     0.14587    
H53      H      0.375400000000     0.493350000000     0.296100000000     0.0392285  
H54      H      0.292110000000     0.488420000000     0.380340000000     0.0328463  
H55      H      0.141880000000     0.480370000000     0.232220000000     0.0519167  
H56      H      0.219910000000     0.435210000000     0.122520000000     0.13964    
H57      H      0.143800000000     0.491210000000     0.795310000000     0.0442015  
H58      H      0.227270000000     0.487540000000     0.879670000000     0.0321771  
H59      H      0.377460000000     0.480480000000     0.731520000000     0.0533119  
H60      H      0.307360000000     0.530920000000     0.620840000000     0.140655   
H61      H      0.876540000000     0.509160000000     0.789870000000     0.0341143  
H62      H      0.793970000000     0.505210000000     0.874510000000     0.034393   
H63      H      0.642280000000     0.507620000000     0.727690000000     0.0511702  
H64      H      0.715640000000     0.464570000000     0.615020000000     0.144632   
H65      H      0.641450000000     0.790130000000     0.015840000000     0.0313903  
H66      H      0.724570000000     0.875260000000     0.012690000000     0.0331653  
H67      H      0.875630000000     0.728100000000     0.007400000000     0.0646799  
H68      H      0.801520000000     0.617150000000     0.962530000000     0.15258    
H69      H      0.727560000000     0.144040000000     0.015780000000     0.0402132  
H70      H      0.644110000000     0.227040000000     0.006370000000     0.0345945  
H71      H      0.792870000000     0.377130000000     0.003650000000     0.0610496  
H72      H      0.905060000000     0.301350000000     0.966210000000     0.147031   
H73      H      0.142310000000     0.725600000000     0.016260000000     0.0304394  
H74      H      0.226040000000     0.641890000000     0.011800000000     0.0316038  
H75      H      0.375860000000     0.790420000000     0.023820000000     0.0641169  
H76      H      0.299920000000     0.894920000000     0.081700000000     0.138819   
H77      H      0.291770000000     0.141670000000     0.018950000000     0.0295863  
H78      H      0.376360000000     0.224390000000     0.007160000000     0.0368114  
H79      H      0.228760000000     0.374970000000     0.001680000000     0.0535099  
H80      H      0.121780000000     0.307090000000     0.063470000000     0.142891   
H81      H      0.643180000000     0.010790000000     0.795190000000     0.0333634  
H82      H      0.726750000000     0.004610000000     0.879160000000     0.0376146  
H83      H      0.876930000000     0.016490000000     0.731140000000     0.0704914  
H84      H      0.802100000000     0.074690000000     0.626080000000     0.153175   
H85      H      0.290060000000     0.009620000000     0.873170000000     0.0312332  
H86      H      0.374810000000     0.005270000000     0.790710000000     0.0401073  
H87      H      0.228010000000     0.008570000000     0.638910000000     0.0580144  
H88      H      0.119740000000     0.063480000000     0.711300000000     0.149149   
H89      H      0.289800000000     0.024250000000     0.142680000000     0.0284761  
H90      H      0.373770000000     0.017690000000     0.226400000000     0.0275773  
H91      H      0.225370000000     0.026090000000     0.376260000000     0.0698757  
H92      H      0.111940000000     0.987730000000     0.303920000000     0.140386   
H93      H      0.873130000000     0.011910000000     0.292160000000     0.0262721  
H94      H      0.791010000000     0.015680000000     0.377570000000     0.0381463  
H95      H      0.639890000000     0.039570000000     0.232170000000     0.0517446  
H96      H      0.705850000000     0.989790000000     0.118240000000     0.145623   
H97      H      0.018430000000     0.227630000000     0.644390000000     0.0269028  
H98      H      0.018980000000     0.142650000000     0.726320000000     0.0364238  
H99      H      0.027000000000     0.288840000000     0.878680000000     0.0597407  
H100     H      0.979920000000     0.401270000000     0.809560000000     0.150231   
H101     H      0.001910000000     0.727440000000     0.876510000000     0.0350164  
H102     H      0.002660000000     0.642390000000     0.793490000000     0.0379747  
H103     H      0.997870000000     0.789190000000     0.642240000000     0.0614881  
H104     H      0.043650000000     0.901500000000     0.713630000000     0.163677   
H105     H      0.014860000000     0.874310000000     0.290310000000     0.0224946  
H106     H      0.016070000000     0.792610000000     0.375720000000     0.0354451  
H107     H      0.019210000000     0.639760000000     0.229940000000     0.0516516  
H108     H      0.067120000000     0.712430000000     0.119130000000     0.148973   
H109     H      0.033430000000     0.374000000000     0.229940000000     0.0278659  
H110     H      0.032980000000     0.291070000000     0.144790000000     0.0342628  
H111     H      0.035850000000     0.139740000000     0.291430000000     0.0652733  
H112     H      0.988140000000     0.211120000000     0.402830000000     0.141715   
N1       N      0.524540000000     0.208030000000     0.310910000000    -0.237149   
N2       N      0.512500000000     0.304300000000     0.212350000000    -0.256548   
N3       N      0.516550000000     0.804140000000     0.310650000000    -0.22226    
N4       N      0.516620000000     0.705520000000     0.213640000000    -0.238281   
N5       N      0.498400000000     0.811300000000     0.711880000000    -0.19353    
N6       N      0.495290000000     0.714500000000     0.811410000000    -0.256471   
N7       N      0.504020000000     0.211950000000     0.713140000000    -0.211713   
N8       N      0.491710000000     0.309000000000     0.810960000000    -0.271917   
N9       N      0.805300000000     0.307700000000     0.491800000000    -0.220718   
N10      N      0.708430000000     0.208740000000     0.487470000000    -0.268596   
N11      N      0.809910000000     0.708510000000     0.510570000000    -0.200547   
N12      N      0.712880000000     0.807360000000     0.506000000000    -0.256843   
N13      N      0.207180000000     0.307720000000     0.486920000000    -0.231264   
N14      N      0.303570000000     0.208400000000     0.490250000000    -0.256793   
N15      N      0.211540000000     0.710480000000     0.505430000000    -0.223218   
N16      N      0.310480000000     0.807050000000     0.511590000000    -0.23892    
N17      N      0.806580000000     0.507240000000     0.308200000000    -0.222482   
N18      N      0.708070000000     0.509590000000     0.211060000000    -0.231836   
N19      N      0.210240000000     0.485840000000     0.312980000000    -0.236906   
N20      N      0.307350000000     0.491450000000     0.214520000000    -0.254791   
N21      N      0.309150000000     0.485440000000     0.812330000000    -0.236602   
N22      N      0.211840000000     0.490100000000     0.713740000000    -0.246817   
N23      N      0.711520000000     0.505980000000     0.807870000000    -0.214343   
N24      N      0.807970000000     0.510390000000     0.708570000000    -0.232587   
N25      N      0.806980000000     0.808720000000     0.009690000000    -0.199745   
N26      N      0.709750000000     0.708890000000     0.013240000000    -0.230415   
N27      N      0.712100000000     0.308500000000     0.004310000000    -0.217309   
N28      N      0.809310000000     0.212070000000     0.014850000000    -0.262023   
N29      N      0.307440000000     0.709780000000     0.016280000000    -0.22242    
N30      N      0.210360000000     0.806970000000     0.022410000000    -0.262022   
N31      N      0.309500000000     0.306450000000     0.002930000000    -0.234183   
N32      N      0.210320000000     0.209800000000     0.018050000000    -0.267627   
N33      N      0.808540000000     0.009610000000     0.811840000000    -0.194966   
N34      N      0.711190000000     0.017260000000     0.713830000000    -0.250308   
N35      N      0.308170000000     0.006420000000     0.708180000000    -0.197037   
N36      N      0.209000000000     0.011950000000     0.804450000000    -0.251154   
N37      N      0.306190000000     0.019910000000     0.308020000000    -0.21887    
N38      N      0.208020000000     0.027320000000     0.210470000000    -0.273102   
N39      N      0.708840000000     0.027570000000     0.311720000000    -0.235239   
N40      N      0.804440000000     0.021410000000     0.211630000000    -0.255297   
N41      N      0.021840000000     0.209260000000     0.808790000000    -0.218484   
N42      N      0.020610000000     0.308210000000     0.713800000000    -0.254156   
N43      N      0.001210000000     0.708730000000     0.710900000000    -0.194018   
N44      N      0.000650000000     0.808770000000     0.808320000000    -0.229223   
N45      N      0.016970000000     0.709830000000     0.309480000000    -0.223571   
N46      N      0.015840000000     0.804730000000     0.209880000000    -0.260634   
N47      N      0.033550000000     0.208470000000     0.211010000000    -0.230515   
N48      N      0.032840000000     0.305720000000     0.311210000000    -0.264304   
O1       O      0.026010000000     0.179780000000     0.099010000000    -1.08088    
O2       O      0.013240000000     0.833830000000     0.098480000000    -0.786934   
O3       O      0.916330000000     0.011900000000     0.182090000000    -1.01198    
O4       O      0.097140000000     0.021370000000     0.179650000000    -1.09379    
O5       O      0.179920000000     0.023170000000     0.098290000000    -1.09434    
O6       O      0.833680000000     0.016760000000     0.099870000000    -0.771332   
O7       O      0.010400000000     0.916380000000     0.181000000000    -1.02914    
O8       O      0.023540000000     0.097300000000     0.180800000000    -1.06529    
O9       O      0.079740000000     0.944890000000     0.080360000000    -2.10688    
O10      O      0.945520000000     0.080520000000     0.081160000000    -2.13141    
O11      O      0.936740000000     0.937340000000     0.084910000000    -0.867906   
O12      O      0.023250000000     0.022520000000     0.023710000000    -2.61824    
O13      O      0.003230000000     0.837680000000     0.921410000000    -0.69552    
O14      O      0.016970000000     0.179700000000     0.919510000000    -0.969978   
O15      O      0.835840000000     0.921240000000     0.010510000000    -0.715467   
O16      O      0.180380000000     0.917810000000     0.017560000000    -0.989817   
O17      O      0.181190000000     0.097460000000     0.019430000000    -1.0771     
O18      O      0.836340000000     0.099930000000     0.018080000000    -0.758255   
O19      O      0.920380000000     0.009940000000     0.840050000000    -0.573317   
O20      O      0.097570000000     0.012050000000     0.835030000000    -0.610525   
O21      O      0.837510000000     0.006020000000     0.923670000000    -0.704272   
O22      O      0.180580000000     0.011620000000     0.916890000000    -0.937654   
O23      O      0.919190000000     0.837660000000     0.009090000000    -0.721706   
O24      O      0.920040000000     0.180930000000     0.015930000000    -0.99706    
O25      O      0.098760000000     0.179200000000     0.021550000000    -1.08966    
O26      O      0.098170000000     0.835150000000     0.019260000000    -0.764936   
O27      O      0.005780000000     0.920910000000     0.838600000000    -0.561262   
O28      O      0.016070000000     0.097890000000     0.836140000000    -0.624172   
O29      O      0.079530000000     0.078350000000     0.946640000000    -2.06413    
O30      O      0.947320000000     0.948440000000     0.948740000000    -1.58192    
O31      O      0.936850000000     0.077720000000     0.938750000000    -1.21228    
O32      O      0.077030000000     0.935550000000     0.937990000000    -1.22025    
O33      O      0.024630000000     0.336430000000     0.422780000000    -1.04071    
O34      O      0.015600000000     0.682780000000     0.421320000000    -0.782767   
O35      O      0.918430000000     0.508900000000     0.337860000000    -1.00885    
O36      O      0.099080000000     0.492800000000     0.341700000000    -1.0899     
O37      O      0.181160000000     0.493460000000     0.424060000000    -1.0819     
O38      O      0.834930000000     0.504790000000     0.419720000000    -0.790521   
O39      O      0.012970000000     0.599080000000     0.339540000000    -1.0259     
O40      O      0.023260000000     0.417840000000     0.340200000000    -1.05476    
O41      O      0.081470000000     0.571350000000     0.440280000000    -2.10277    
O42      O      0.945480000000     0.436740000000     0.439120000000    -2.1137     
O43      O      0.938790000000     0.579740000000     0.435550000000    -0.869771   
O44      O      0.023180000000     0.494010000000     0.497200000000    -2.59074    
O45      O      0.004270000000     0.678750000000     0.598700000000    -0.693172   
O46      O      0.015000000000     0.336690000000     0.602140000000    -0.951205   
O47      O      0.837910000000     0.596390000000     0.510320000000    -0.734887   
O48      O      0.181770000000     0.599070000000     0.507360000000    -0.969921   
O49      O      0.179390000000     0.419170000000     0.495670000000    -1.07038    
O50      O      0.834540000000     0.419330000000     0.498540000000    -0.767808   
O51      O      0.920480000000     0.508490000000     0.681050000000    -0.58257    
O52      O      0.099610000000     0.500090000000     0.685540000000    -0.608763   
O53      O      0.838620000000     0.511880000000     0.596730000000    -0.709534   
O54      O      0.181170000000     0.497760000000     0.602380000000    -0.952726   
O55      O      0.921780000000     0.679430000000     0.511090000000    -0.726935   
O56      O      0.916750000000     0.336490000000     0.501780000000    -0.956366   
O57      O      0.096420000000     0.337430000000     0.495340000000    -1.06111    
O58      O      0.099620000000     0.681950000000     0.503090000000    -0.762357   
O59      O      0.007290000000     0.596230000000     0.682650000000    -0.574982   
O60      O      0.014950000000     0.419160000000     0.684520000000    -0.626102   
O61      O      0.078820000000     0.437440000000     0.573980000000    -2.02147    
O62      O      0.948580000000     0.568720000000     0.571600000000    -1.59089    
O63      O      0.935970000000     0.439620000000     0.581960000000    -1.25049    
O64      O      0.078160000000     0.580520000000     0.583300000000    -1.23432    
O65      O      0.680370000000     0.022280000000     0.423340000000    -1.05629    
O66      O      0.334290000000     0.013960000000     0.419650000000    -0.787852   
O67      O      0.511060000000     0.915930000000     0.339300000000    -1.01972    
O68      O      0.522040000000     0.096980000000     0.340700000000    -1.08225    
O69      O      0.522020000000     0.179910000000     0.422260000000    -1.08189    
O70      O      0.516040000000     0.833420000000     0.422090000000    -0.782093   
O71      O      0.417750000000     0.010860000000     0.337780000000    -1.01333    
O72      O      0.597960000000     0.022370000000     0.341320000000    -1.09569    
O73      O      0.445310000000     0.079500000000     0.439130000000    -2.11976    
O74      O      0.581020000000     0.945150000000     0.440610000000    -2.11237    
O75      O      0.438110000000     0.936270000000     0.435780000000    -0.874791   
O76      O      0.522400000000     0.023190000000     0.497210000000    -2.59894    
O77      O      0.338170000000     0.004960000000     0.596680000000    -0.723466   
O78      O      0.680440000000     0.016560000000     0.602420000000    -0.936699   
O79      O      0.422300000000     0.837170000000     0.511910000000    -0.731517   
O80      O      0.415680000000     0.180570000000     0.500120000000    -0.95189    
O81      O      0.596580000000     0.180140000000     0.495740000000    -1.06897    
O82      O      0.600360000000     0.835530000000     0.504400000000    -0.763081   
O83      O      0.505730000000     0.922790000000     0.682370000000    -0.572656   
O84      O      0.510150000000     0.100490000000     0.684620000000    -0.62032    
O85      O      0.503610000000     0.839110000000     0.599430000000    -0.70175    
O86      O      0.509560000000     0.182520000000     0.601490000000    -0.945357   
O87      O      0.338140000000     0.919520000000     0.510610000000    -0.747178   
O88      O      0.681660000000     0.918880000000     0.507160000000    -0.941668   
O89      O      0.678440000000     0.097710000000     0.495540000000    -1.07055    
O90      O      0.334470000000     0.097010000000     0.497650000000    -0.762236   
O91      O      0.420330000000     0.008760000000     0.681090000000    -0.578292   
O92      O      0.598760000000     0.015960000000     0.685510000000    -0.617657   
O93      O      0.578540000000     0.080830000000     0.574020000000    -2.01032    
O94      O      0.448610000000     0.948720000000     0.571800000000    -1.5966     
O95      O      0.577400000000     0.937300000000     0.583560000000    -1.22929    
O96      O      0.435000000000     0.077620000000     0.581290000000    -1.24217    
O97      O      0.421380000000     0.335770000000     0.000380000000    -1.07696    
O98      O      0.418800000000     0.682220000000     0.011190000000    -0.792363   
O99      O      0.337740000000     0.503050000000     0.103460000000    -1.0049     
O100     O      0.338530000000     0.493710000000     0.923440000000    -1.08702    
O101     O      0.420370000000     0.493190000000     0.840810000000    -1.0827     
O102     O      0.419570000000     0.498440000000     0.186490000000    -0.778482   
O103     O      0.336930000000     0.598580000000     0.013450000000    -1.02289    
O104     O      0.339160000000     0.417920000000     0.000860000000    -1.07318    
O105     O      0.437370000000     0.572300000000     0.940670000000    -2.09122    
O106     O      0.439160000000     0.435650000000     0.074730000000    -2.1449     
O107     O      0.434420000000     0.578470000000     0.084030000000    -0.866125   
O108     O      0.495660000000     0.494450000000     0.996860000000    -2.60524    
O109     O      0.596730000000     0.679670000000     0.014900000000    -0.696945   
O110     O      0.600770000000     0.336950000000     0.002910000000    -0.972112   
O111     O      0.511310000000     0.593970000000     0.183200000000    -0.727593   
O112     O      0.500410000000     0.602020000000     0.839420000000    -0.949177   
O113     O      0.496220000000     0.420940000000     0.839550000000    -1.0646     
O114     O      0.504520000000     0.416390000000     0.184420000000    -0.764133   
O115     O      0.680310000000     0.509200000000     0.098430000000    -0.570929   
O116     O      0.683540000000     0.505190000000     0.919880000000    -0.615984   
O117     O      0.596480000000     0.510860000000     0.180880000000    -0.706446   
O118     O      0.600020000000     0.506160000000     0.838150000000    -0.938763   
O119     O      0.512030000000     0.678390000000     0.101130000000    -0.735871   
O120     O      0.508420000000     0.335330000000     0.100950000000    -0.963183   
O121     O      0.494300000000     0.339080000000     0.921960000000    -1.11319    
O122     O      0.497440000000     0.683020000000     0.923170000000    -0.750413   
O123     O      0.679950000000     0.596820000000     0.011230000000    -0.571015   
O124     O      0.683340000000     0.419600000000     0.003880000000    -0.629495   
O125     O      0.572290000000     0.439060000000     0.939430000000    -2.02856    
O126     O      0.570400000000     0.568290000000     0.071940000000    -1.59224    
O127     O      0.581740000000     0.439670000000     0.082370000000    -1.22815    
O128     O      0.580100000000     0.582190000000     0.942580000000    -1.23639    
O129     O      0.518470000000     0.216950000000     0.131680000000    -0.281987   
O130     O      0.525950000000     0.625160000000     0.300890000000    -0.275647   
O131     O      0.492150000000     0.802340000000     0.891490000000    -0.278389   
O132     O      0.481700000000     0.221440000000     0.890940000000    -0.277303   
O133     O      0.796400000000     0.128690000000     0.483070000000    -0.275973   
O134     O      0.800530000000     0.887890000000     0.509090000000    -0.281458   
O135     O      0.215700000000     0.128230000000     0.486650000000    -0.274876   
O136     O      0.390440000000     0.719170000000     0.519190000000    -0.278201   
O137     O      0.627910000000     0.493650000000     0.297700000000    -0.27848    
O138     O      0.220390000000     0.482930000000     0.133670000000    -0.284197   
O139     O      0.299210000000     0.484130000000     0.633000000000    -0.282182   
O140     O      0.719890000000     0.511520000000     0.628470000000    -0.277656   
O141     O      0.798140000000     0.629130000000     0.009950000000    -0.28017    
O142     O      0.890780000000     0.299140000000     0.013070000000    -0.283144   
O143     O      0.297300000000     0.887760000000     0.033270000000    -0.280663   
O144     O      0.130270000000     0.297830000000     0.016120000000    -0.277854   
O145     O      0.798510000000     0.026360000000     0.633380000000    -0.278573   
O146     O      0.128960000000     0.015630000000     0.716410000000    -0.283539   
O147     O      0.127370000000     0.033880000000     0.297900000000    -0.278094   
O148     O      0.716650000000     0.035460000000     0.132420000000    -0.280382   
O149     O      0.026580000000     0.388130000000     0.802000000000    -0.280632   
O150     O      0.996820000000     0.888450000000     0.720050000000    -0.275932   
O151     O      0.019530000000     0.716140000000     0.130370000000    -0.279584   
O152     O      0.035290000000     0.217460000000     0.390870000000    -0.275508   
Tb1      Tb     0.007470000000     0.007450000000     0.121800000000     6.44734    
Tb2      Tb     0.009920000000     0.897750000000     0.013260000000     4.29703    
Tb3      Tb     0.008870000000     0.120490000000     0.009540000000     6.63089    
Tb4      Tb     0.897750000000     0.011170000000     0.014180000000     4.23985    
Tb5      Tb     0.121230000000     0.007190000000     0.008610000000     6.53263    
Tb6      Tb     0.011350000000     0.011170000000     0.899070000000     3.11552    
Tb7      Tb     0.008880000000     0.508750000000     0.398870000000     6.39283    
Tb8      Tb     0.011830000000     0.618880000000     0.507240000000     4.25953    
Tb9      Tb     0.007350000000     0.395990000000     0.511540000000     6.3568     
Tb10     Tb     0.898470000000     0.506430000000     0.506070000000     4.3656     
Tb11     Tb     0.121400000000     0.508850000000     0.512510000000     6.49788    
Tb12     Tb     0.011720000000     0.505510000000     0.621990000000     3.12716    
Tb13     Tb     0.508100000000     0.007020000000     0.398940000000     6.4449     
Tb14     Tb     0.398050000000     0.010060000000     0.505950000000     4.39887    
Tb15     Tb     0.620610000000     0.008520000000     0.512400000000     6.40949    
Tb16     Tb     0.511650000000     0.898020000000     0.507690000000     4.32363    
Tb17     Tb     0.506670000000     0.121440000000     0.511220000000     6.40817    
Tb18     Tb     0.511100000000     0.012890000000     0.621900000000     3.08921    
Tb19     Tb     0.397440000000     0.508560000000     0.012970000000     6.4155     
Tb20     Tb     0.505010000000     0.619120000000     0.010360000000     4.30647    
Tb21     Tb     0.510710000000     0.396350000000     0.011230000000     6.61666    
Tb22     Tb     0.505790000000     0.504940000000     0.121980000000     4.3355     
Tb23     Tb     0.509580000000     0.510780000000     0.898710000000     6.37618    
Tb24     Tb     0.620290000000     0.506300000000     0.007390000000     3.11883    


