data_structure

_audit_creation_method RASPA-1.0
_audit_creation_date 2023-5-19
_audit_author_name 'Poobodin Mano'

_cell_length_a    26.321
_cell_length_b    26.3067
_cell_length_c    26.3038
_cell_angle_alpha 90
_cell_angle_beta  90
_cell_angle_gamma 90
_cell_volume      18213.2

_symmetry_cell_setting          triclinic
_symmetry_space_group_name_Hall 'P 1'
_symmetry_space_group_name_H-M  'P 1'
_symmetry_Int_Tables_number     1

_symmetry_equiv_pos_as_xyz 'x,y,z'

loop_
_atom_site_label
_atom_site_type_symbol
_atom_site_fract_x
_atom_site_fract_y
_atom_site_fract_z
_atom_site_charge
C1       C      0.034380000000     0.134810000000     0.130710000000     0.718834   
C2       C      0.015150000000     0.898430000000     0.136520000000     0.679942   
C3       C      0.895850000000     0.025840000000     0.136120000000     0.668983   
C4       C      0.132580000000     0.029930000000     0.131130000000     0.732362   
C5       C      0.006150000000     0.896880000000     0.902110000000     0.560467   
C6       C      0.024900000000     0.130430000000     0.895180000000     0.658473   
C7       C      0.893570000000     0.902260000000     0.018120000000     0.582386   
C8       C      0.127970000000     0.893300000000     0.027800000000     0.698656   
C9       C      0.135050000000     0.129210000000     0.025480000000     0.717264   
C10      C      0.899210000000     0.137330000000     0.022490000000     0.691694   
C11      C      0.896240000000     0.014140000000     0.902290000000     0.571667   
C12      C      0.130870000000     0.014430000000     0.895510000000     0.64793    
C13      C      0.032120000000     0.399430000000     0.398640000000     0.715059   
C14      C      0.019720000000     0.636490000000     0.401890000000     0.681175   
C15      C      0.896820000000     0.515310000000     0.396980000000     0.672609   
C16      C      0.133250000000     0.501490000000     0.402520000000     0.732951   
C17      C      0.008350000000     0.629160000000     0.635950000000     0.560799   
C18      C      0.021770000000     0.395010000000     0.633920000000     0.654834   
C19      C      0.897510000000     0.630910000000     0.519530000000     0.590341   
C20      C      0.132160000000     0.634930000000     0.512840000000     0.693095   
C21      C      0.131970000000     0.399570000000     0.500030000000     0.719613   
C22      C      0.896420000000     0.396130000000     0.503770000000     0.684214   
C23      C      0.896710000000     0.515780000000     0.631160000000     0.575251   
C24      C      0.131530000000     0.505180000000     0.638050000000     0.648669   
C25      C      0.633040000000     0.030740000000     0.403070000000     0.725601   
C26      C      0.396710000000     0.020380000000     0.396560000000     0.672513   
C27      C      0.520060000000     0.895070000000     0.400160000000     0.677113   
C28      C      0.530380000000     0.131720000000     0.399890000000     0.733894   
C29      C      0.396130000000     0.013750000000     0.631030000000     0.571803   
C30      C      0.630210000000     0.023130000000     0.638570000000     0.644296   
C31      C      0.397210000000     0.899780000000     0.517800000000     0.594211   
C32      C      0.395120000000     0.133920000000     0.503070000000     0.691069   
C33      C      0.630640000000     0.132430000000     0.502010000000     0.716636   
C34      C      0.632280000000     0.896450000000     0.513190000000     0.68189    
C35      C      0.506920000000     0.900810000000     0.633950000000     0.572089   
C36      C      0.515590000000     0.135440000000     0.635610000000     0.64822    
C37      C      0.400960000000     0.395180000000     0.006230000000     0.727209   
C38      C      0.393310000000     0.631750000000     0.018820000000     0.677706   
C39      C      0.399290000000     0.506330000000     0.139260000000     0.676178   
C40      C      0.396370000000     0.498090000000     0.902670000000     0.730615   
C41      C      0.627670000000     0.635650000000     0.018360000000     0.564009   
C42      C      0.636800000000     0.401560000000     0.006860000000     0.655664   
C43      C      0.517260000000     0.631520000000     0.134290000000     0.594326   
C44      C      0.499830000000     0.636270000000     0.900170000000     0.686553   
C45      C      0.500440000000     0.400450000000     0.899520000000     0.726876   
C46      C      0.515010000000     0.396580000000     0.135440000000     0.687124   
C47      C      0.632630000000     0.521220000000     0.130970000000     0.57654    
C48      C      0.631580000000     0.514240000000     0.896080000000     0.648292   
C49      C      0.511750000000     0.333620000000     0.259760000000    -0.104542   
C50      C      0.527470000000     0.284140000000     0.247310000000     0.0406726  
C51      C      0.538100000000     0.273470000000     0.196120000000    -0.109034   
C52      C      0.532340000000     0.311090000000     0.159180000000     0.109013   
C53      C      0.507810000000     0.370760000000     0.221970000000     0.100042   
C54      C      0.531680000000     0.243740000000     0.287080000000     0.0441895  
C55      C      0.543520000000     0.255790000000     0.337730000000    -0.111      
C56      C      0.544010000000     0.217780000000     0.374880000000     0.10753    
C57      C      0.525070000000     0.155390000000     0.312800000000     0.112032   
C58      C      0.522910000000     0.192530000000     0.275030000000    -0.113245   
C59      C      0.534750000000     0.833790000000     0.276090000000    -0.110127   
C60      C      0.524050000000     0.782850000000     0.287760000000     0.0434213  
C61      C      0.513080000000     0.770510000000     0.338480000000    -0.106599   
C62      C      0.513020000000     0.808280000000     0.375720000000     0.10013    
C63      C      0.532880000000     0.870810000000     0.314010000000     0.107794   
C64      C      0.523440000000     0.743140000000     0.247230000000     0.0382393  
C65      C      0.509740000000     0.755390000000     0.197170000000    -0.101915   
C66      C      0.508930000000     0.717850000000     0.159770000000     0.0950773  
C67      C      0.533130000000     0.655510000000     0.220100000000     0.0952803  
C68      C      0.535790000000     0.692400000000     0.258150000000    -0.10144    
C69      C      0.486490000000     0.840300000000     0.757980000000    -0.0965007  
C70      C      0.496480000000     0.788980000000     0.747070000000     0.0373169  
C71      C      0.509130000000     0.776350000000     0.696740000000    -0.0992297  
C72      C      0.511310000000     0.813970000000     0.659300000000     0.0955905  
C73      C      0.490590000000     0.877160000000     0.719910000000     0.0904078  
C74      C      0.494780000000     0.749160000000     0.787850000000     0.0444016  
C75      C      0.505160000000     0.761310000000     0.838820000000    -0.10522    
C76      C      0.504940000000     0.723430000000     0.876090000000     0.101945   
C77      C      0.485550000000     0.661030000000     0.814220000000     0.108509   
C78      C      0.483870000000     0.698180000000     0.776270000000    -0.108953   
C79      C      0.493930000000     0.258910000000     0.695800000000    -0.107279   
C80      C      0.503830000000     0.248090000000     0.747110000000     0.039471   
C81      C      0.518800000000     0.198440000000     0.759750000000    -0.100942   
C82      C      0.522520000000     0.161240000000     0.722070000000     0.0941944  
C83      C      0.499640000000     0.221250000000     0.658940000000     0.107578   
C84      C      0.499590000000     0.288470000000     0.786860000000     0.0450113  
C85      C      0.508470000000     0.339660000000     0.774820000000    -0.113376   
C86      C      0.506150000000     0.376770000000     0.812540000000     0.112555   
C87      C      0.487180000000     0.314360000000     0.874620000000     0.107108   
C88      C      0.487620000000     0.276400000000     0.837480000000    -0.110863   
C89      C      0.692640000000     0.257090000000     0.501760000000    -0.111736   
C90      C      0.743330000000     0.244280000000     0.491210000000     0.0435537  
C91      C      0.754540000000     0.192970000000     0.481570000000    -0.109478   
C92      C      0.716420000000     0.156100000000     0.484820000000     0.10492    
C93      C      0.655270000000     0.219480000000     0.503290000000     0.110328   
C94      C      0.784190000000     0.283880000000     0.492030000000     0.0408042  
C95      C      0.773510000000     0.334870000000     0.480360000000    -0.104342   
C96      C      0.811340000000     0.371880000000     0.484710000000     0.0999659  
C97      C      0.871370000000     0.309280000000     0.508710000000     0.107661   
C98      C      0.834120000000     0.271530000000     0.506200000000    -0.107662   
C99      C      0.835840000000     0.755310000000     0.508610000000    -0.100828   
C100     C      0.784680000000     0.743280000000     0.517740000000     0.0380877  
C101     C      0.772630000000     0.692370000000     0.528390000000    -0.100201   
C102     C      0.810680000000     0.655260000000     0.528710000000     0.0941767  
C103     C      0.873050000000     0.717570000000     0.510690000000     0.0944709  
C104     C      0.744470000000     0.783530000000     0.516130000000     0.0435373  
C105     C      0.755870000000     0.834220000000     0.528350000000    -0.108731   
C106     C      0.718240000000     0.871530000000     0.525940000000     0.108749   
C107     C      0.657170000000     0.810070000000     0.501640000000     0.100219   
C108     C      0.694250000000     0.771990000000     0.502210000000    -0.10499    
C109     C      0.334970000000     0.257480000000     0.480460000000    -0.108875   
C110     C      0.283540000000     0.246460000000     0.489400000000     0.0410648  
C111     C      0.270540000000     0.196050000000     0.501240000000    -0.105466   
C112     C      0.308130000000     0.158710000000     0.504330000000     0.101463   
C113     C      0.371710000000     0.219510000000     0.485380000000     0.108379   
C114     C      0.244110000000     0.287440000000     0.488400000000     0.0434051  
C115     C      0.256520000000     0.337680000000     0.501400000000    -0.112167   
C116     C      0.218910000000     0.375010000000     0.503030000000     0.110925   
C117     C      0.156320000000     0.314680000000     0.479760000000     0.105563   
C118     C      0.193260000000     0.276680000000     0.476290000000    -0.110053   
C119     C      0.193170000000     0.759460000000     0.524500000000    -0.106478   
C120     C      0.244250000000     0.747600000000     0.514700000000     0.0443656  
C121     C      0.256380000000     0.696950000000     0.503160000000    -0.110258   
C122     C      0.218510000000     0.659790000000     0.502840000000     0.109827   
C123     C      0.156070000000     0.721630000000     0.522340000000     0.103116   
C124     C      0.284430000000     0.787710000000     0.516390000000     0.0380806  
C125     C      0.273050000000     0.838450000000     0.504510000000    -0.101431   
C126     C      0.310890000000     0.875510000000     0.506470000000     0.0952592  
C127     C      0.371970000000     0.813660000000     0.529870000000     0.0948823  
C128     C      0.334700000000     0.775860000000     0.529790000000    -0.100822   
C129     C      0.836780000000     0.509610000000     0.271290000000    -0.108767   
C130     C      0.785920000000     0.520700000000     0.283080000000     0.0434828  
C131     C      0.773690000000     0.530290000000     0.334140000000    -0.106405   
C132     C      0.811000000000     0.527340000000     0.371640000000     0.100311   
C133     C      0.873530000000     0.508630000000     0.309660000000     0.10607    
C134     C      0.745740000000     0.521640000000     0.242840000000     0.0375749  
C135     C      0.757220000000     0.534190000000     0.192210000000    -0.0975487  
C136     C      0.719090000000     0.533640000000     0.155160000000     0.0902128  
C137     C      0.657820000000     0.511110000000     0.217130000000     0.0970556  
C138     C      0.695140000000     0.509680000000     0.254680000000    -0.100881   
C139     C      0.257580000000     0.482200000000     0.342480000000    -0.110838   
C140     C      0.246710000000     0.493350000000     0.291390000000     0.0439297  
C141     C      0.196250000000     0.504860000000     0.278600000000    -0.113515   
C142     C      0.158660000000     0.505470000000     0.315910000000     0.111801   
C143     C      0.219200000000     0.484610000000     0.379170000000     0.106787   
C144     C      0.287570000000     0.494410000000     0.251870000000     0.04004    
C145     C      0.337800000000     0.507430000000     0.264350000000    -0.104688   
C146     C      0.374930000000     0.510160000000     0.226450000000     0.0984248  
C147     C      0.314110000000     0.488720000000     0.163660000000     0.106975   
C148     C      0.276490000000     0.484050000000     0.200710000000    -0.109179   
C149     C      0.255770000000     0.505990000000     0.700920000000    -0.106617   
C150     C      0.243150000000     0.491830000000     0.750810000000     0.0391478  
C151     C      0.191870000000     0.481600000000     0.761530000000    -0.100512   
C152     C      0.155000000000     0.486810000000     0.723610000000     0.0935751  
C153     C      0.218170000000     0.509380000000     0.663630000000     0.106667   
C154     C      0.282930000000     0.489390000000     0.791460000000     0.0445256  
C155     C      0.333830000000     0.478460000000     0.779670000000    -0.110721   
C156     C      0.371160000000     0.480730000000     0.817390000000     0.106692   
C157     C      0.308950000000     0.500180000000     0.879420000000     0.110881   
C158     C      0.270890000000     0.499700000000     0.842430000000    -0.112197   
C159     C      0.691880000000     0.526470000000     0.771110000000    -0.107557   
C160     C      0.742760000000     0.515050000000     0.782440000000     0.0429806  
C161     C      0.754850000000     0.502220000000     0.832800000000    -0.102099   
C162     C      0.717320000000     0.502470000000     0.870240000000     0.0957179  
C163     C      0.654980000000     0.524790000000     0.809260000000     0.107242   
C164     C      0.782950000000     0.516480000000     0.742270000000     0.0385328  
C165     C      0.771420000000     0.506150000000     0.691200000000    -0.100102   
C166     C      0.809630000000     0.507380000000     0.654360000000     0.0962466  
C167     C      0.871030000000     0.527270000000     0.717110000000     0.0917274  
C168     C      0.833560000000     0.527940000000     0.754610000000    -0.097657   
C169     C      0.829840000000     0.778700000000     0.029250000000    -0.102173   
C170     C      0.778940000000     0.791030000000     0.019000000000     0.0409317  
C171     C      0.767540000000     0.842240000000     0.008800000000    -0.106194   
C172     C      0.806090000000     0.879080000000     0.009150000000     0.094214   
C173     C      0.867460000000     0.816110000000     0.027930000000     0.094036   
C174     C      0.738610000000     0.750570000000     0.018640000000     0.0379013  
C175     C      0.750680000000     0.700110000000     0.006060000000    -0.101618   
C176     C      0.713410000000     0.662340000000     0.007090000000     0.0855887  
C177     C      0.651020000000     0.722780000000     0.030310000000     0.0914608  
C178     C      0.687770000000     0.761410000000     0.030980000000    -0.0982322  
C179     C      0.776770000000     0.201920000000     0.031900000000    -0.10886    
C180     C      0.789430000000     0.251040000000     0.015540000000     0.0469306  
C181     C      0.840260000000     0.261520000000     0.003680000000    -0.116633   
C182     C      0.876760000000     0.223480000000     0.007940000000     0.108228   
C183     C      0.814010000000     0.164420000000     0.034350000000     0.103014   
C184     C      0.749840000000     0.290990000000     0.010920000000     0.0348089  
C185     C      0.699900000000     0.278310000000     0.997470000000    -0.102631   
C186     C      0.662670000000     0.315850000000     0.995700000000     0.112      
C187     C      0.723530000000     0.378910000000     0.016760000000     0.0956246  
C188     C      0.761420000000     0.342150000000     0.020260000000    -0.10154    
C189     C      0.327860000000     0.753780000000     0.010430000000    -0.111361   
C190     C      0.278790000000     0.740760000000     0.026590000000     0.0433955  
C191     C      0.268820000000     0.689900000000     0.038950000000    -0.110905   
C192     C      0.307240000000     0.653680000000     0.034960000000     0.106857   
C193     C      0.365680000000     0.716920000000     0.008330000000     0.0968711  
C194     C      0.238420000000     0.780090000000     0.030050000000     0.0424932  
C195     C      0.250720000000     0.830500000000     0.042060000000    -0.111493   
C196     C      0.213220000000     0.867730000000     0.041570000000     0.112041   
C197     C      0.150560000000     0.806070000000     0.021720000000     0.103583   
C198     C      0.187420000000     0.768050000000     0.020350000000    -0.107043   
C199     C      0.341340000000     0.269650000000     0.019610000000    -0.113293   
C200     C      0.289590000000     0.280860000000     0.012560000000     0.0457227  
C201     C      0.276890000000     0.331290000000     0.000130000000    -0.124158   
C202     C      0.314560000000     0.368810000000     0.997280000000     0.118466   
C203     C      0.378150000000     0.307810000000     0.015020000000     0.109136   
C204     C      0.249350000000     0.240550000000     0.018250000000     0.0410363  
C205     C      0.260190000000     0.188940000000     0.009580000000    -0.116086   
C206     C      0.222120000000     0.152070000000     0.014420000000     0.109428   
C207     C      0.161890000000     0.215370000000     0.035510000000     0.104044   
C208     C      0.199370000000     0.253050000000     0.032450000000    -0.108989   
C209     C      0.832520000000     0.004460000000     0.778840000000    -0.102291   
C210     C      0.782420000000     0.017820000000     0.791350000000     0.0383447  
C211     C      0.771410000000     0.028500000000     0.842450000000    -0.100272   
C212     C      0.809570000000     0.025660000000     0.879180000000     0.0960678  
C213     C      0.870060000000     0.003460000000     0.816320000000     0.0863961  
C214     C      0.742080000000     0.020620000000     0.751450000000     0.0445565  
C215     C      0.754130000000     0.033360000000     0.701050000000    -0.109001   
C216     C      0.716300000000     0.034120000000     0.663880000000     0.106542   
C217     C      0.653950000000     0.013050000000     0.725300000000     0.097743   
C218     C      0.691040000000     0.010480000000     0.763140000000    -0.110196   
C219     C      0.332940000000     0.024510000000     0.754450000000    -0.0934688  
C220     C      0.282600000000     0.012000000000     0.742280000000     0.0251826  
C221     C      0.271380000000     0.999730000000     0.691550000000    -0.0797416  
C222     C      0.309630000000     0.000840000000     0.654690000000     0.0768124  
C223     C      0.370370000000     0.023890000000     0.717020000000     0.0878992  
C224     C      0.242370000000     0.012010000000     0.782300000000     0.0481678  
C225     C      0.254280000000     0.000440000000     0.833000000000    -0.115715   
C226     C      0.216760000000     0.002270000000     0.870370000000     0.104363   
C227     C      0.154880000000     0.024240000000     0.808760000000     0.0954566  
C228     C      0.191790000000     0.024160000000     0.770600000000    -0.105306   
C229     C      0.194780000000     0.026310000000     0.255470000000    -0.114      
C230     C      0.245830000000     0.034930000000     0.242750000000     0.043623   
C231     C      0.257510000000     0.044380000000     0.191500000000    -0.110969   
C232     C      0.219190000000     0.043250000000     0.154630000000     0.105494   
C233     C      0.157390000000     0.026860000000     0.217960000000     0.111363   
C234     C      0.286310000000     0.032870000000     0.282660000000     0.0391556  
C235     C      0.275350000000     0.045320000000     0.333370000000    -0.105165   
C236     C      0.312440000000     0.040140000000     0.370860000000     0.0988712  
C237     C      0.372670000000     0.013810000000     0.309380000000     0.103084   
C238     C      0.335950000000     0.017030000000     0.271060000000    -0.107766   
C239     C      0.757960000000     0.027650000000     0.341760000000    -0.11205    
C240     C      0.745750000000     0.039300000000     0.291100000000     0.0432477  
C241     C      0.694950000000     0.051310000000     0.279940000000    -0.110773   
C242     C      0.657860000000     0.048830000000     0.317870000000     0.105562   
C243     C      0.720180000000     0.027140000000     0.379040000000     0.109274   
C244     C      0.785240000000     0.037320000000     0.250110000000     0.0395065  
C245     C      0.836820000000     0.045940000000     0.260840000000    -0.107611   
C246     C      0.873330000000     0.041300000000     0.222510000000     0.104646   
C247     C      0.809280000000     0.022630000000     0.162130000000     0.0977094  
C248     C      0.772010000000     0.025360000000     0.199790000000    -0.104651   
C249     C      0.018330000000     0.331430000000     0.757030000000    -0.104485   
C250     C      0.032040000000     0.281730000000     0.743730000000     0.0421144  
C251     C      0.042940000000     0.271060000000     0.692690000000    -0.109517   
C252     C      0.038860000000     0.309290000000     0.656320000000     0.10817    
C253     C      0.015990000000     0.368960000000     0.719960000000     0.0975499  
C254     C      0.033410000000     0.241150000000     0.782770000000     0.0424905  
C255     C      0.046940000000     0.252360000000     0.833040000000    -0.110164   
C256     C      0.043940000000     0.214840000000     0.870120000000     0.109944   
C257     C      0.018260000000     0.154250000000     0.808450000000     0.0975201  
C258     C      0.019400000000     0.191220000000     0.770630000000    -0.104343   
C259     C      0.012970000000     0.833110000000     0.777870000000    -0.095835   
C260     C      0.001670000000     0.782370000000     0.790160000000     0.0332669  
C261     C      0.991130000000     0.771410000000     0.841470000000    -0.0911334  
C262     C      0.992920000000     0.809910000000     0.878420000000     0.0953851  
C263     C      0.013190000000     0.870760000000     0.815460000000     0.0876865  
C264     C      0.001620000000     0.741520000000     0.749900000000     0.0333121  
C265     C      0.991200000000     0.753010000000     0.698720000000    -0.0920703  
C266     C      0.993770000000     0.715190000000     0.661300000000     0.0959452  
C267     C      0.013880000000     0.653460000000     0.723450000000     0.0863054  
C268     C      0.012910000000     0.690630000000     0.761700000000    -0.0955937  
C269     C      0.006070000000     0.775640000000     0.200320000000    -0.112298   
C270     C      0.019660000000     0.788440000000     0.250230000000     0.0426422  
C271     C      0.031240000000     0.839310000000     0.261130000000    -0.110912   
C272     C      0.028580000000     0.875830000000     0.222870000000     0.108715   
C273     C      0.005410000000     0.812780000000     0.162730000000     0.0975228  
C274     C      0.021330000000     0.748930000000     0.290530000000     0.0444622  
C275     C      0.009720000000     0.760910000000     0.341150000000    -0.115098   
C276     C      0.010670000000     0.723090000000     0.378170000000     0.103863   
C277     C      0.032800000000     0.661400000000     0.316260000000     0.109891   
C278     C      0.033860000000     0.698520000000     0.278630000000    -0.112783   
C279     C      0.054380000000     0.339720000000     0.273880000000    -0.107517   
C280     C      0.045590000000     0.287980000000     0.284420000000     0.0404021  
C281     C      0.034300000000     0.275020000000     0.335030000000    -0.109649   
C282     C      0.031670000000     0.312470000000     0.372760000000     0.106286   
C283     C      0.050010000000     0.376450000000     0.312370000000     0.101398   
C284     C      0.046490000000     0.248110000000     0.243120000000     0.0405654  
C285     C      0.035790000000     0.260430000000     0.192190000000    -0.109331   
C286     C      0.034000000000     0.222420000000     0.154830000000     0.105792   
C287     C      0.052660000000     0.159510000000     0.216230000000     0.102472   
C288     C      0.056290000000     0.196690000000     0.254220000000    -0.108379   
H1       H      0.977320000000     0.981430000000     0.056010000000    -1.23965    
H2       H      0.046050000000     0.045720000000     0.046110000000    -1.08357    
H3       H      0.970730000000     0.101980000000     0.969960000000    -0.527801   
H4       H      0.097930000000     0.965730000000     0.971430000000    -0.536147   
H5       H      0.979200000000     0.551370000000     0.479100000000    -1.24235    
H6       H      0.045890000000     0.485140000000     0.486660000000    -1.07552    
H7       H      0.968310000000     0.427650000000     0.560120000000    -0.512735   
H8       H      0.099850000000     0.560460000000     0.565040000000    -0.544063   
H9       H      0.478590000000     0.979480000000     0.478420000000    -1.25983    
H10      H      0.545020000000     0.046100000000     0.487030000000    -1.06409    
H11      H      0.599050000000     0.970280000000     0.564440000000    -0.514453   
H12      H      0.466740000000     0.102510000000     0.560390000000    -0.533649   
H13      H      0.476200000000     0.550600000000     0.054270000000    -1.2513     
H14      H      0.484490000000     0.484940000000     0.986840000000    -1.07421    
H15      H      0.563320000000     0.431070000000     0.060920000000    -0.534966   
H16      H      0.556790000000     0.564310000000     0.930350000000    -0.537907   
H17      H      0.551540000000     0.236450000000     0.184290000000     0.0514937  
H18      H      0.541290000000     0.300880000000     0.120260000000     0.0108075  
H19      H      0.495650000000     0.408430000000     0.233460000000     0.0177489  
H20      H      0.501740000000     0.343790000000     0.298340000000     0.0515928  
H21      H      0.552280000000     0.294370000000     0.349000000000     0.0524203  
H22      H      0.552470000000     0.229050000000     0.413620000000     0.0147218  
H23      H      0.517050000000     0.116580000000     0.301490000000     0.0101174  
H24      H      0.512780000000     0.180870000000     0.236910000000     0.052053   
H25      H      0.503470000000     0.732090000000     0.349600000000     0.0521046  
H26      H      0.503960000000     0.796890000000     0.414280000000     0.0158593  
H27      H      0.541180000000     0.909660000000     0.303030000000     0.00959132 
H28      H      0.544900000000     0.845370000000     0.237940000000     0.0528716  
H29      H      0.498620000000     0.793580000000     0.186700000000     0.0508734  
H30      H      0.497770000000     0.729260000000     0.121760000000     0.0172983  
H31      H      0.542930000000     0.616830000000     0.230420000000     0.0199759  
H32      H      0.547920000000     0.680930000000     0.295750000000     0.0514278  
H33      H      0.518490000000     0.737780000000     0.686030000000     0.05113    
H34      H      0.521560000000     0.802150000000     0.621170000000     0.0190063  
H35      H      0.482660000000     0.916240000000     0.730370000000     0.0225977  
H36      H      0.475140000000     0.852360000000     0.795620000000     0.0517728  
H37      H      0.514820000000     0.799630000000     0.850170000000     0.05379    
H38      H      0.513820000000     0.734770000000     0.914710000000     0.0173771  
H39      H      0.477450000000     0.622160000000     0.803170000000     0.0104879  
H40      H      0.473910000000     0.686550000000     0.738100000000     0.0527155  
H41      H      0.528340000000     0.188120000000     0.798410000000     0.0514354  
H42      H      0.534010000000     0.123400000000     0.733690000000     0.018598   
H43      H      0.491250000000     0.231520000000     0.619910000000     0.0118256  
H44      H      0.481040000000     0.296070000000     0.683780000000     0.0515377  
H45      H      0.518780000000     0.351350000000     0.736760000000     0.052837   
H46      H      0.514220000000     0.415580000000     0.801260000000     0.0121433  
H47      H      0.478620000000     0.303130000000     0.913350000000     0.0153777  
H48      H      0.478710000000     0.237860000000     0.848750000000     0.0529966  
H49      H      0.792580000000     0.180930000000     0.471620000000     0.0520815  
H50      H      0.727100000000     0.116920000000     0.477740000000     0.0157878  
H51      H      0.616910000000     0.231430000000     0.512390000000     0.0124731  
H52      H      0.681640000000     0.295750000000     0.510440000000     0.0527359  
H53      H      0.736180000000     0.346560000000     0.467740000000     0.051754   
H54      H      0.801070000000     0.410760000000     0.475650000000     0.0184289  
H55      H      0.909190000000     0.297820000000     0.520350000000     0.0120847  
H56      H      0.844530000000     0.233150000000     0.516690000000     0.0524087  
H57      H      0.734100000000     0.680910000000     0.537030000000     0.0513827  
H58      H      0.799420000000     0.616480000000     0.536970000000     0.0199807  
H59      H      0.911880000000     0.728980000000     0.502990000000     0.0188689  
H60      H      0.847470000000     0.793550000000     0.498910000000     0.051435   
H61      H      0.793480000000     0.845370000000     0.540630000000     0.0537656  
H62      H      0.729070000000     0.910010000000     0.535990000000     0.0127249  
H63      H      0.618930000000     0.799250000000     0.490750000000     0.0181202  
H64      H      0.683360000000     0.733910000000     0.491140000000     0.0523173  
H65      H      0.231740000000     0.185320000000     0.509540000000     0.051385   
H66      H      0.296170000000     0.120490000000     0.514100000000     0.0154901  
H67      H      0.410950000000     0.230080000000     0.478570000000     0.0107265  
H68      H      0.347210000000     0.295220000000     0.469630000000     0.0516821  
H69      H      0.294790000000     0.348280000000     0.512010000000     0.0523302  
H70      H      0.230470000000     0.412970000000     0.514160000000     0.0126808  
H71      H      0.117460000000     0.304320000000     0.470820000000     0.015616   
H72      H      0.181630000000     0.239070000000     0.464360000000     0.051577   
H73      H      0.294820000000     0.685730000000     0.493850000000     0.0526174  
H74      H      0.229830000000     0.621170000000     0.493940000000     0.010049   
H75      H      0.117240000000     0.732690000000     0.530530000000     0.0159295  
H76      H      0.181580000000     0.797560000000     0.534760000000     0.0532471  
H77      H      0.235330000000     0.849770000000     0.492740000000     0.0516501  
H78      H      0.300110000000     0.914040000000     0.496590000000     0.0182576  
H79      H      0.410260000000     0.802590000000     0.540300000000     0.019772   
H80      H      0.345510000000     0.737710000000     0.540710000000     0.0512071  
H81      H      0.735580000000     0.540650000000     0.345530000000     0.0523135  
H82      H      0.799440000000     0.535030000000     0.410460000000     0.0160867  
H83      H      0.912250000000     0.499780000000     0.298750000000     0.0095017  
H84      H      0.848400000000     0.500810000000     0.232830000000     0.0527078  
H85      H      0.795260000000     0.544930000000     0.180950000000     0.0506806  
H86      H      0.729780000000     0.543410000000     0.116570000000     0.0200786  
H87      H      0.619440000000     0.501260000000     0.228410000000     0.0191052  
H88      H      0.684040000000     0.498240000000     0.292580000000     0.0512962  
H89      H      0.185550000000     0.514910000000     0.240180000000     0.0516262  
H90      H      0.120480000000     0.515290000000     0.303940000000     0.00988264 
H91      H      0.229500000000     0.476310000000     0.418210000000     0.015269   
H92      H      0.295470000000     0.471620000000     0.354430000000     0.052177   
H93      H      0.348520000000     0.516760000000     0.302940000000     0.05124    
H94      H      0.413050000000     0.520790000000     0.237900000000     0.0155877  
H95      H      0.303420000000     0.480640000000     0.124680000000     0.00903758 
H96      H      0.238950000000     0.472170000000     0.188880000000     0.0508371  
H97      H      0.179880000000     0.469250000000     0.798880000000     0.0509726  
H98      H      0.115930000000     0.478600000000     0.733810000000     0.0190095  
H99      H      0.229960000000     0.520730000000     0.625800000000     0.0117697  
H100     H      0.294350000000     0.515630000000     0.690500000000     0.0516045  
H101     H      0.345230000000     0.468410000000     0.741450000000     0.0522026  
H102     H      0.410030000000     0.472890000000     0.806190000000     0.015174   
H103     H      0.297700000000     0.509350000000     0.918000000000     0.0112357  
H104     H      0.232560000000     0.509130000000     0.853900000000     0.0532566  
H105     H      0.793020000000     0.491440000000     0.843620000000     0.0533871  
H106     H      0.728690000000     0.492470000000     0.908580000000     0.0203905  
H107     H      0.616290000000     0.534240000000     0.798710000000     0.011938   
H108     H      0.680360000000     0.537610000000     0.733230000000     0.0526636  
H109     H      0.733330000000     0.496110000000     0.679450000000     0.0512067  
H110     H      0.798870000000     0.498720000000     0.615530000000     0.0186209  
H111     H      0.909570000000     0.536150000000     0.728680000000     0.0223145  
H112     H      0.844570000000     0.537880000000     0.792980000000     0.052532   
H113     H      0.729230000000     0.854070000000     0.999750000000     0.0577556  
H114     H      0.795380000000     0.918010000000     0.000900000000     0.019494   
H115     H      0.906030000000     0.804210000000     0.036180000000     0.0183274  
H116     H      0.841020000000     0.740350000000     0.038990000000     0.0509609  
H117     H      0.788700000000     0.689410000000     0.994660000000     0.0564175  
H118     H      0.725100000000     0.624140000000     0.996990000000     0.0265274  
H119     H      0.612370000000     0.733050000000     0.040220000000     0.0205604  
H120     H      0.676190000000     0.799340000000     0.041890000000     0.0503324  
H121     H      0.851940000000     0.298550000000     0.990060000000     0.0590902  
H122     H      0.915470000000     0.233190000000     0.997710000000     0.0165594  
H123     H      0.802450000000     0.126850000000     0.046760000000     0.0169789  
H124     H      0.738380000000     0.192260000000     0.043060000000     0.0520933  
H125     H      0.689320000000     0.239630000000     0.988250000000     0.0527878  
H126     H      0.624410000000     0.304230000000     0.985770000000     0.0119793  
H127     H      0.734100000000     0.417870000000     0.025090000000     0.0186084  
H128     H      0.799180000000     0.353910000000     0.031520000000     0.0511694  
H129     H      0.231850000000     0.677970000000     0.052460000000     0.0518382  
H130     H      0.297950000000     0.614870000000     0.045280000000     0.00795972 
H131     H      0.403070000000     0.728820000000     0.995760000000     0.023031   
H132     H      0.337230000000     0.792130000000     0.998860000000     0.0578428  
H133     H      0.289150000000     0.841530000000     0.051710000000     0.0525669  
H134     H      0.224670000000     0.906340000000     0.050370000000     0.0106236  
H135     H      0.111760000000     0.795270000000     0.013080000000     0.0144108  
H136     H      0.175930000000     0.729860000000     0.010270000000     0.0517003  
H137     H      0.238020000000     0.342200000000     0.992440000000     0.058313   
H138     H      0.302560000000     0.407220000000     0.988360000000     0.0109185  
H139     H      0.417360000000     0.297080000000     0.021690000000     0.0109921  
H140     H      0.353810000000     0.231890000000     0.030030000000     0.0511744  
H141     H      0.297580000000     0.176650000000     0.997750000000     0.0568279  
H142     H      0.232510000000     0.112990000000     0.006480000000     0.0103212  
H143     H      0.123830000000     0.227240000000     0.045900000000     0.0144622  
H144     H      0.188800000000     0.291750000000     0.041440000000     0.0500686  
H145     H      0.733770000000     0.040030000000     0.854300000000     0.0511139  
H146     H      0.799160000000     0.034710000000     0.918020000000     0.0197848  
H147     H      0.908220000000     0.993180000000     0.804680000000     0.027347   
H148     H      0.843010000000     0.994310000000     0.740380000000     0.0571795  
H149     H      0.792520000000     0.043110000000     0.690030000000     0.0524886  
H150     H      0.727600000000     0.043780000000     0.625430000000     0.0112742  
H151     H      0.615170000000     0.004410000000     0.736180000000     0.0172723  
H152     H      0.679520000000     0.999490000000     0.801070000000     0.0594012  
H153     H      0.233440000000     0.988710000000     0.680160000000     0.0487123  
H154     H      0.299190000000     0.991090000000     0.616030000000     0.0287179  
H155     H      0.408590000000     0.034070000000     0.728540000000     0.0216756  
H156     H      0.343670000000     0.035650000000     0.792570000000     0.0490167  
H157     H      0.292300000000     0.989400000000     0.844100000000     0.0592917  
H158     H      0.227960000000     0.993030000000     0.908940000000     0.017823   
H159     H      0.116360000000     0.034060000000     0.797920000000     0.0181993  
H160     H      0.180580000000     0.034450000000     0.732370000000     0.0517252  
H161     H      0.295980000000     0.052640000000     0.179580000000     0.0513185  
H162     H      0.230090000000     0.050100000000     0.115470000000     0.0137066  
H163     H      0.118710000000     0.019280000000     0.229970000000     0.00926709 
H164     H      0.183380000000     0.017670000000     0.294030000000     0.0513372  
H165     H      0.238350000000     0.059390000000     0.344480000000     0.0507599  
H166     H      0.301850000000     0.050140000000     0.409430000000     0.0189461  
H167     H      0.410360000000     0.001110000000     0.298670000000     0.00726888 
H168     H      0.346480000000     0.006030000000     0.232850000000     0.0499172  
H169     H      0.683400000000     0.062450000000     0.242070000000     0.051596   
H170     H      0.619060000000     0.057610000000     0.307140000000     0.0129851  
H171     H      0.731520000000     0.017010000000     0.417350000000     0.0115436  
H172     H      0.796170000000     0.017280000000     0.352780000000     0.0516706  
H173     H      0.849360000000     0.056610000000     0.298520000000     0.0512423  
H174     H      0.912630000000     0.048150000000     0.232770000000     0.00952821 
H175     H      0.797000000000     0.013040000000     0.123970000000     0.0151322  
H176     H      0.733180000000     0.016960000000     0.189240000000     0.0502163  
H177     H      0.054810000000     0.233530000000     0.680690000000     0.0523544  
H178     H      0.047490000000     0.299400000000     0.617250000000     0.0108964  
H179     H      0.004920000000     0.406790000000     0.732020000000     0.0179009  
H180     H      0.008300000000     0.341390000000     0.795680000000     0.0520612  
H181     H      0.059610000000     0.289940000000     0.844010000000     0.0529715  
H182     H      0.054180000000     0.225340000000     0.908650000000     0.0120652  
H183     H      0.006450000000     0.116300000000     0.797550000000     0.0171274  
H184     H      0.007860000000     0.180780000000     0.732540000000     0.0515421  
H185     H      0.981030000000     0.733380000000     0.853410000000     0.0521545  
H186     H      0.984650000000     0.799350000000     0.917400000000     0.0229388  
H187     H      0.022470000000     0.909100000000     0.803550000000     0.0226782  
H188     H      0.022730000000     0.844080000000     0.739460000000     0.0503418  
H189     H      0.980680000000     0.791030000000     0.687140000000     0.0521925  
H190     H      0.985660000000     0.726380000000     0.622470000000     0.0226077  
H191     H      0.023230000000     0.614950000000     0.734720000000     0.021013   
H192     H      0.022160000000     0.679260000000     0.800120000000     0.0499625  
H193     H      0.043020000000     0.851080000000     0.298750000000     0.05218    
H194     H      0.038050000000     0.914670000000     0.232900000000     0.00893365 
H195     H      0.994660000000     0.801070000000     0.124690000000     0.0202239  
H196     H      0.995270000000     0.737280000000     0.190100000000     0.0572499  
H197     H      0.998820000000     0.798990000000     0.352280000000     0.0587594  
H198     H      0.000930000000     0.733950000000     0.416730000000     0.0132339  
H199     H      0.042450000000     0.622870000000     0.305240000000     0.00753673 
H200     H      0.044730000000     0.687460000000     0.240520000000     0.0518951  
H201     H      0.025980000000     0.236250000000     0.345850000000     0.0503114  
H202     H      0.022230000000     0.300090000000     0.410920000000     0.0123543  
H203     H      0.056610000000     0.415800000000     0.302050000000     0.0129985  
H204     H      0.064700000000     0.352300000000     0.236120000000     0.0500598  
H205     H      0.027150000000     0.299000000000     0.180920000000     0.0503698  
H206     H      0.024700000000     0.234080000000     0.116410000000     0.0113961  
H207     H      0.059760000000     0.120400000000     0.227150000000     0.0129031  
H208     H      0.066660000000     0.184640000000     0.292130000000     0.0501961  
N1       N      0.517890000000     0.359540000000     0.172030000000    -0.254218   
N2       N      0.534010000000     0.168060000000     0.362630000000    -0.267969   
N3       N      0.522090000000     0.858170000000     0.363450000000    -0.255239   
N4       N      0.519880000000     0.668140000000     0.171240000000    -0.23676    
N5       N      0.502870000000     0.864130000000     0.670890000000    -0.228726   
N6       N      0.496350000000     0.673480000000     0.863730000000    -0.253513   
N7       N      0.513130000000     0.172600000000     0.672030000000    -0.246431   
N8       N      0.497110000000     0.364080000000     0.862350000000    -0.266995   
N9       N      0.667230000000     0.169170000000     0.496230000000    -0.264496   
N10      N      0.859880000000     0.359230000000     0.498960000000    -0.253424   
N11      N      0.860570000000     0.667760000000     0.520020000000    -0.235006   
N12      N      0.669100000000     0.859510000000     0.513270000000    -0.252941   
N13      N      0.358450000000     0.170540000000     0.497490000000    -0.254853   
N14      N      0.168940000000     0.363340000000     0.493740000000    -0.26522    
N15      N      0.168730000000     0.672030000000     0.512330000000    -0.255725   
N16      N      0.360150000000     0.863140000000     0.518340000000    -0.236449   
N17      N      0.860620000000     0.516900000000     0.359530000000    -0.254133   
N18      N      0.669730000000     0.522340000000     0.167580000000    -0.230309   
N19      N      0.170180000000     0.496660000000     0.366040000000    -0.268401   
N20      N      0.362960000000     0.501790000000     0.176360000000    -0.254369   
N21      N      0.168050000000     0.500510000000     0.674990000000    -0.245975   
N22      N      0.358950000000     0.492360000000     0.866760000000    -0.26778    
N23      N      0.667750000000     0.513660000000     0.858590000000    -0.246304   
N24      N      0.859220000000     0.516990000000     0.667350000000    -0.229951   
N25      N      0.855820000000     0.866060000000     0.018190000000    -0.23334    
N26      N      0.663800000000     0.673480000000     0.018810000000    -0.22639    
N27      N      0.863530000000     0.175070000000     0.022120000000    -0.256462   
N28      N      0.674320000000     0.365650000000     0.005820000000    -0.250781   
N29      N      0.355450000000     0.667270000000     0.020490000000    -0.25629    
N30      N      0.163670000000     0.855710000000     0.030830000000    -0.258001   
N31      N      0.364820000000     0.357350000000     0.005290000000    -0.269577   
N32      N      0.172970000000     0.165260000000     0.025990000000    -0.263394   
N33      N      0.858720000000     0.014070000000     0.866120000000    -0.228719   
N34      N      0.666600000000     0.023870000000     0.675850000000    -0.246234   
N35      N      0.358810000000     0.012630000000     0.667390000000    -0.226796   
N36      N      0.167360000000     0.013780000000     0.858340000000    -0.246296   
N37      N      0.169550000000     0.034030000000     0.167720000000    -0.26843    
N38      N      0.360760000000     0.024520000000     0.359040000000    -0.253934   
N39      N      0.670250000000     0.036120000000     0.366920000000    -0.267118   
N40      N      0.859660000000     0.029890000000     0.173470000000    -0.252965   
N41      N      0.025540000000     0.357830000000     0.669930000000    -0.24941    
N42      N      0.029230000000     0.166330000000     0.857970000000    -0.24998    
N43      N      0.003830000000     0.859340000000     0.865580000000    -0.227512   
N44      N      0.005200000000     0.665700000000     0.673400000000    -0.228104   
N45      N      0.016300000000     0.862500000000     0.173980000000    -0.256569   
N46      N      0.021220000000     0.673600000000     0.365600000000    -0.258069   
N47      N      0.038350000000     0.363020000000     0.361460000000    -0.262861   
N48      N      0.040890000000     0.172090000000     0.166950000000    -0.263931   
O1       O      0.029740000000     0.148740000000     0.081960000000    -1.05161    
O2       O      0.013440000000     0.882560000000     0.088050000000    -0.797093   
O3       O      0.945220000000     0.024040000000     0.149890000000    -1.00732    
O4       O      0.084230000000     0.026270000000     0.146350000000    -1.07685    
O5       O      0.146670000000     0.027670000000     0.082310000000    -1.07318    
O6       O      0.880370000000     0.023710000000     0.087480000000    -0.787462   
O7       O      0.015700000000     0.947850000000     0.150090000000    -1.01502    
O8       O      0.031160000000     0.086320000000     0.146020000000    -1.06257    
O9       O      0.068040000000     0.966230000000     0.071600000000    -2.08177    
O10      O      0.967730000000     0.073530000000     0.070780000000    -2.08717    
O11      O      0.958190000000     0.963680000000     0.076260000000    -0.866298   
O12      O      0.025620000000     0.026430000000     0.026890000000    -2.57998    
O13      O      0.004740000000     0.883230000000     0.951790000000    -0.700113   
O14      O      0.026200000000     0.145820000000     0.944000000000    -0.947853   
O15      O      0.880040000000     0.951960000000     0.017330000000    -0.72423    
O16      O      0.144110000000     0.941820000000     0.025770000000    -0.969687   
O17      O      0.148180000000     0.080090000000     0.021730000000    -1.04954    
O18      O      0.883370000000     0.088950000000     0.025990000000    -0.771958   
O19      O      0.945090000000     0.013020000000     0.886440000000    -0.58626    
O20      O      0.081870000000     0.016580000000     0.881500000000    -0.626708   
O21      O      0.882260000000     0.017040000000     0.951660000000    -0.71468    
O22      O      0.145790000000     0.011710000000     0.944480000000    -0.937508   
O23      O      0.942330000000     0.886010000000     0.019750000000    -0.735656   
O24      O      0.948400000000     0.150330000000     0.017120000000    -0.958122   
O25      O      0.086650000000     0.145020000000     0.026240000000    -1.05622    
O26      O      0.078720000000     0.880160000000     0.025510000000    -0.775587   
O27      O      0.011220000000     0.945540000000     0.886350000000    -0.583686   
O28      O      0.018660000000     0.081760000000     0.881360000000    -0.634124   
O29      O      0.069590000000     0.066910000000     0.966500000000    -2.00375    
O30      O      0.965540000000     0.969880000000     0.971170000000    -1.5902     
O31      O      0.959620000000     0.069240000000     0.961250000000    -1.2293     
O32      O      0.064680000000     0.956920000000     0.962110000000    -1.23751    
O33      O      0.027050000000     0.384010000000     0.446870000000    -1.03868    
O34      O      0.018220000000     0.650620000000     0.450910000000    -0.79417    
O35      O      0.946260000000     0.515400000000     0.383350000000    -1.00579    
O36      O      0.085080000000     0.506720000000     0.387250000000    -1.0771     
O37      O      0.147260000000     0.502470000000     0.451410000000    -1.06695    
O38      O      0.881260000000     0.514750000000     0.445640000000    -0.799      
O39      O      0.019140000000     0.587630000000     0.386510000000    -1.0176     
O40      O      0.030000000000     0.448500000000     0.384960000000    -1.05255    
O41      O      0.070400000000     0.565020000000     0.464200000000    -2.09305    
O42      O      0.966980000000     0.460410000000     0.460370000000    -2.09136    
O43      O      0.960690000000     0.570490000000     0.459520000000    -0.873188   
O44      O      0.025880000000     0.504230000000     0.506500000000    -2.57716    
O45      O      0.007690000000     0.644490000000     0.586780000000    -0.706301   
O46      O      0.022930000000     0.381430000000     0.584550000000    -0.944066   
O47      O      0.882720000000     0.581630000000     0.518730000000    -0.741401   
O48      O      0.147050000000     0.585930000000     0.512900000000    -0.967613   
O49      O      0.146520000000     0.447860000000     0.506920000000    -1.06166    
O50      O      0.882000000000     0.445140000000     0.503000000000    -0.775245   
O51      O      0.945520000000     0.514810000000     0.647100000000    -0.585674   
O52      O      0.082410000000     0.505140000000     0.652020000000    -0.622762   
O53      O      0.882710000000     0.514420000000     0.581700000000    -0.725176   
O54      O      0.146580000000     0.510000000000     0.589290000000    -0.946788   
O55      O      0.946600000000     0.646120000000     0.518480000000    -0.734775   
O56      O      0.945180000000     0.381670000000     0.509750000000    -0.942857   
O57      O      0.083330000000     0.384670000000     0.500540000000    -1.04938    
O58      O      0.083110000000     0.649000000000     0.514640000000    -0.773374   
O59      O      0.013000000000     0.579940000000     0.650150000000    -0.582647   
O60      O      0.016710000000     0.443270000000     0.649530000000    -0.635526   
O61      O      0.068620000000     0.460000000000     0.565120000000    -2.00016    
O62      O      0.967430000000     0.559850000000     0.564040000000    -1.60573    
O63      O      0.958440000000     0.460440000000     0.570200000000    -1.24972    
O64      O      0.066740000000     0.569940000000     0.574270000000    -1.24627    
O65      O      0.647090000000     0.025850000000     0.451700000000    -1.04449    
O66      O      0.381180000000     0.022340000000     0.445180000000    -0.792287   
O67      O      0.520080000000     0.944170000000     0.385400000000    -1.0171     
O68      O      0.525440000000     0.083130000000     0.385660000000    -1.07055    
O69      O      0.529280000000     0.146790000000     0.448460000000    -1.06214    
O70      O      0.517630000000     0.880580000000     0.449070000000    -0.800846   
O71      O      0.445900000000     0.015130000000     0.383090000000    -1.00873    
O72      O      0.584580000000     0.028880000000     0.387760000000    -1.07852    
O73      O      0.466540000000     0.070500000000     0.460830000000    -2.10682    
O74      O      0.570370000000     0.966590000000     0.463790000000    -2.08329    
O75      O      0.460130000000     0.960560000000     0.458620000000    -0.872682   
O76      O      0.525090000000     0.026740000000     0.506680000000    -2.57715    
O77      O      0.382220000000     0.011790000000     0.581530000000    -0.717828   
O78      O      0.645370000000     0.023800000000     0.589620000000    -0.932279   
O79      O      0.446330000000     0.884610000000     0.519390000000    -0.744053   
O80      O      0.444190000000     0.148500000000     0.504970000000    -0.954248   
O81      O      0.582210000000     0.147310000000     0.506580000000    -1.06159    
O82      O      0.583310000000     0.882210000000     0.510430000000    -0.771901   
O83      O      0.508220000000     0.950040000000     0.648700000000    -0.581232   
O84      O      0.517280000000     0.086700000000     0.650650000000    -0.628761   
O85      O      0.510160000000     0.885600000000     0.584920000000    -0.721197   
O86      O      0.513690000000     0.149370000000     0.586310000000    -0.94226    
O87      O      0.382390000000     0.948890000000     0.514450000000    -0.748161   
O88      O      0.646760000000     0.945430000000     0.517420000000    -0.934013   
O89      O      0.645260000000     0.083700000000     0.504310000000    -1.04327    
O90      O      0.380590000000     0.085100000000     0.506890000000    -0.771893   
O91      O      0.444750000000     0.018110000000     0.646830000000    -0.591351   
O92      O      0.581190000000     0.019900000000     0.652370000000    -0.629027   
O93      O      0.567620000000     0.071160000000     0.565980000000    -1.99042    
O94      O      0.467130000000     0.970330000000     0.563260000000    -1.60722    
O95      O      0.565980000000     0.960680000000     0.573600000000    -1.24634    
O96      O      0.457270000000     0.069630000000     0.570430000000    -1.25334    
O97      O      0.450000000000     0.381850000000     0.008780000000    -1.05392    
O98      O      0.441490000000     0.648060000000     0.014840000000    -0.792372   
O99      O      0.384080000000     0.507000000000     0.090310000000    -1.01173    
O100     O      0.382560000000     0.503050000000     0.951390000000    -1.07426    
O101     O      0.444680000000     0.500570000000     0.887050000000    -1.06751    
O102     O      0.448260000000     0.509810000000     0.153300000000    -0.79759    
O103     O      0.380510000000     0.582290000000     0.022410000000    -1.02198    
O104     O      0.385380000000     0.443660000000     0.007290000000    -1.06996    
O105     O      0.457080000000     0.563650000000     0.963550000000    -2.08768    
O106     O      0.462680000000     0.458580000000     0.066560000000    -2.10797    
O107     O      0.456540000000     0.568630000000     0.073730000000    -0.868773   
O108     O      0.504160000000     0.504860000000     0.006210000000    -2.58855    
O109     O      0.578020000000     0.648960000000     0.021200000000    -0.70177    
O110     O      0.588100000000     0.385780000000     0.006470000000    -0.949959   
O111     O      0.518670000000     0.582230000000     0.148920000000    -0.747829   
O112     O      0.501480000000     0.587310000000     0.885090000000    -0.957048   
O113     O      0.504000000000     0.449120000000     0.885130000000    -1.06522    
O114     O      0.511020000000     0.445320000000     0.150190000000    -0.774147   
O115     O      0.646980000000     0.521560000000     0.081590000000    -0.586853   
O116     O      0.647060000000     0.513500000000     0.944700000000    -0.627617   
O117     O      0.583790000000     0.518050000000     0.146480000000    -0.728001   
O118     O      0.582200000000     0.516690000000     0.882580000000    -0.93544    
O119     O      0.512820000000     0.646920000000     0.085440000000    -0.741773   
O120     O      0.518550000000     0.382640000000     0.086240000000    -0.946958   
O121     O      0.502390000000     0.385350000000     0.948110000000    -1.06889    
O122     O      0.503060000000     0.650230000000     0.949220000000    -0.763465   
O123     O      0.643770000000     0.587080000000     0.013680000000    -0.589977   
O124     O      0.650190000000     0.450630000000     0.010630000000    -0.634934   
O125     O      0.563180000000     0.463630000000     0.960900000000    -2.00175    
O126     O      0.560950000000     0.563010000000     0.062680000000    -1.60721    
O127     O      0.572220000000     0.464080000000     0.070910000000    -1.24944    
O128     O      0.566880000000     0.573860000000     0.963200000000    -1.24554    
Tb1      Tb     0.014360000000     0.016800000000     0.102800000000     6.34567    
Tb2      Tb     0.012840000000     0.930530000000     0.021240000000     4.31305    
Tb3      Tb     0.016340000000     0.101970000000     0.014320000000     6.31062    
Tb4      Tb     0.929100000000     0.019980000000     0.020880000000     4.29655    
Tb5      Tb     0.100490000000     0.012010000000     0.014990000000     6.34723    
Tb6      Tb     0.015530000000     0.015980000000     0.931250000000     3.15435    
Tb7      Tb     0.015420000000     0.517010000000     0.430930000000     6.33534    
Tb8      Tb     0.015970000000     0.599980000000     0.515830000000     4.31301    
Tb9      Tb     0.014380000000     0.428430000000     0.515990000000     6.2413     
Tb10     Tb     0.929700000000     0.512730000000     0.512420000000     4.39173    
Tb11     Tb     0.101160000000     0.516240000000     0.519160000000     6.39461    
Tb12     Tb     0.015920000000     0.510990000000     0.602440000000     3.15014    
Tb13     Tb     0.514950000000     0.014300000000     0.430880000000     6.37232    
Tb14     Tb     0.429120000000     0.017760000000     0.512200000000     4.36337    
Tb15     Tb     0.600450000000     0.015220000000     0.519430000000     6.20104    
Tb16     Tb     0.515770000000     0.930800000000     0.514580000000     4.38593    
Tb17     Tb     0.513180000000     0.102480000000     0.516860000000     6.3475     
Tb18     Tb     0.515030000000     0.019330000000     0.602300000000     3.15395    
Tb19     Tb     0.428550000000     0.513990000000     0.019730000000     6.36035    
Tb20     Tb     0.509050000000     0.600950000000     0.016100000000     4.29832    
Tb21     Tb     0.517690000000     0.429540000000     0.016830000000     6.32618    
Tb22     Tb     0.513210000000     0.513300000000     0.102170000000     4.39768    
Tb23     Tb     0.513310000000     0.517810000000     0.930490000000     6.35252    
Tb24     Tb     0.599750000000     0.516100000000     0.012660000000     3.17242    


