data_structure

_audit_creation_method RASPA-1.0
_audit_creation_date 2023-5-19
_audit_author_name 'Poobodin Mano'

_cell_length_a    32.4681
_cell_length_b    32.4017
_cell_length_c    32.415
_cell_angle_alpha 90
_cell_angle_beta  90
_cell_angle_gamma 90
_cell_volume      34101.3

_symmetry_cell_setting          triclinic
_symmetry_space_group_name_Hall 'P 1'
_symmetry_space_group_name_H-M  'P 1'
_symmetry_Int_Tables_number     1

_symmetry_equiv_pos_as_xyz 'x,y,z'

loop_
_atom_site_label
_atom_site_type_symbol
_atom_site_fract_x
_atom_site_fract_y
_atom_site_fract_z
_atom_site_charge
C1       C      0.018390000000     0.098330000000     0.101980000000     0.733149   
C2       C      0.008180000000     0.907210000000     0.100840000000     0.685629   
C3       C      0.909310000000     0.009340000000     0.106320000000     0.67482    
C4       C      0.101390000000     0.013980000000     0.095560000000     0.72887    
C5       C      0.992210000000     0.911360000000     0.910360000000     0.561919   
C6       C      0.006860000000     0.101720000000     0.910140000000     0.653877   
C7       C      0.904400000000     0.912580000000     0.008980000000     0.581887   
C8       C      0.094890000000     0.905140000000     0.007190000000     0.685583   
C9       C      0.099500000000     0.097970000000     0.014660000000     0.708468   
C10      C      0.908420000000     0.103080000000     0.018080000000     0.690809   
C11      C      0.903460000000     0.005210000000     0.915890000000     0.570128   
C12      C      0.093570000000     0.008710000000     0.904100000000     0.641654   
C13      C      0.014340000000     0.410250000000     0.410510000000     0.730685   
C14      C      0.009180000000     0.601690000000     0.410740000000     0.687599   
C15      C      0.907480000000     0.504700000000     0.407390000000     0.682775   
C16      C      0.098480000000     0.491010000000     0.412300000000     0.739274   
C17      C      0.000130000000     0.597990000000     0.601240000000     0.558303   
C18      C      0.003950000000     0.407520000000     0.601210000000     0.657884   
C19      C      0.910710000000     0.602190000000     0.506930000000     0.591919   
C20      C      0.100530000000     0.599220000000     0.501640000000     0.68538    
C21      C      0.094570000000     0.406900000000     0.494160000000     0.72256    
C22      C      0.904030000000     0.410590000000     0.494800000000     0.68893    
C23      C      0.906310000000     0.508610000000     0.597840000000     0.572065   
C24      C      0.096330000000     0.495460000000     0.605260000000     0.64044    
C25      C      0.597730000000     0.019930000000     0.412340000000     0.720241   
C26      C      0.405970000000     0.004360000000     0.408080000000     0.667675   
C27      C      0.508590000000     0.906570000000     0.410600000000     0.681611   
C28      C      0.513850000000     0.099030000000     0.410580000000     0.735544   
C29      C      0.406710000000     0.000470000000     0.598460000000     0.561313   
C30      C      0.596740000000     0.013070000000     0.603870000000     0.637513   
C31      C      0.410460000000     0.907500000000     0.507760000000     0.596839   
C32      C      0.403760000000     0.098780000000     0.494880000000     0.692594   
C33      C      0.594060000000     0.102670000000     0.493740000000     0.72081    
C34      C      0.600210000000     0.910360000000     0.500680000000     0.685146   
C35      C      0.500190000000     0.910710000000     0.599690000000     0.578103   
C36      C      0.503130000000     0.102060000000     0.601450000000     0.65459    
C37      C      0.409880000000     0.407670000000     0.997320000000     0.716386   
C38      C      0.406240000000     0.600600000000     0.004040000000     0.671344   
C39      C      0.408590000000     0.501700000000     0.104560000000     0.667347   
C40      C      0.408320000000     0.488550000000     0.911760000000     0.716555   
C41      C      0.596210000000     0.600200000000     0.006010000000     0.568903   
C42      C      0.600420000000     0.409710000000     0.001140000000     0.649886   
C43      C      0.505480000000     0.601080000000     0.098350000000     0.599395   
C44      C      0.492880000000     0.600600000000     0.908690000000     0.682023   
C45      C      0.491660000000     0.407910000000     0.913120000000     0.719293   
C46      C      0.499310000000     0.410690000000     0.104860000000     0.689358   
C47      C      0.597740000000     0.510890000000     0.099110000000     0.578454   
C48      C      0.599460000000     0.498910000000     0.908850000000     0.641499   
C49      C      0.499740000000     0.357880000000     0.206970000000    -0.117644   
C50      C      0.520280000000     0.117790000000     0.339750000000     0.11327    
C51      C      0.517310000000     0.169790000000     0.391120000000     0.115443   
C52      C      0.520340000000     0.147690000000     0.308710000000    -0.123283   
C53      C      0.538520000000     0.220180000000     0.250980000000    -0.0346958  
C54      C      0.534880000000     0.250790000000     0.220770000000    -0.0349703  
C55      C      0.514100000000     0.221630000000     0.286750000000    -0.0144389  
C56      C      0.517170000000     0.200420000000     0.360910000000    -0.123653   
C57      C      0.506670000000     0.283360000000     0.225700000000    -0.0135135  
C58      C      0.504900000000     0.308230000000     0.152480000000    -0.12006    
C59      C      0.481800000000     0.284300000000     0.261170000000    -0.0350821  
C60      C      0.502520000000     0.340250000000     0.123840000000     0.108894   
C61      C      0.497180000000     0.389780000000     0.177800000000     0.112013   
C62      C      0.485540000000     0.253870000000     0.291360000000    -0.0343764  
C63      C      0.517810000000     0.189520000000     0.319140000000     0.0665377  
C64      C      0.503750000000     0.316850000000     0.194550000000     0.0649613  
C65      C      0.513080000000     0.805280000000     0.356460000000    -0.118493   
C66      C      0.507110000000     0.672420000000     0.116200000000     0.099428   
C67      C      0.509270000000     0.621570000000     0.168770000000     0.100067   
C68      C      0.507710000000     0.703780000000     0.145700000000    -0.112909   
C69      C      0.531490000000     0.762710000000     0.214980000000    -0.0354769  
C70      C      0.531490000000     0.792900000000     0.245790000000    -0.0342639  
C71      C      0.508030000000     0.726530000000     0.219640000000    -0.0116184  
C72      C      0.509920000000     0.652130000000     0.199020000000    -0.113105   
C73      C      0.508100000000     0.787400000000     0.281840000000    -0.0140403  
C74      C      0.507250000000     0.860290000000     0.307440000000    -0.12029    
C75      C      0.484050000000     0.751610000000     0.286080000000    -0.0344402  
C76      C      0.507600000000     0.888530000000     0.339870000000     0.107481   
C77      C      0.513650000000     0.834040000000     0.388780000000     0.11115    
C78      C      0.483990000000     0.721540000000     0.255330000000    -0.0355404  
C79      C      0.508740000000     0.693800000000     0.187680000000     0.0604587  
C80      C      0.509480000000     0.818190000000     0.315610000000     0.0653453  
C81      C      0.481310000000     0.701460000000     0.854840000000    -0.11558    
C82      C      0.501920000000     0.839460000000     0.617740000000     0.101242   
C83      C      0.493030000000     0.889840000000     0.670000000000     0.0938254  
C84      C      0.500070000000     0.807870000000     0.646930000000    -0.111304   
C85      C      0.519770000000     0.750580000000     0.718870000000    -0.0356938  
C86      C      0.518110000000     0.719580000000     0.748870000000    -0.0339148  
C87      C      0.492080000000     0.783950000000     0.719980000000    -0.0103615  
C88      C      0.490730000000     0.858900000000     0.700010000000    -0.107426   
C89      C      0.488610000000     0.721170000000     0.780590000000    -0.0131515  
C90      C      0.495180000000     0.647940000000     0.805830000000    -0.117742   
C91      C      0.460340000000     0.754120000000     0.781070000000    -0.0339644  
C92      C      0.495540000000     0.619240000000     0.838020000000     0.106976   
C93      C      0.481320000000     0.672240000000     0.886780000000     0.109686   
C94      C      0.462180000000     0.785210000000     0.751260000000    -0.0355869  
C95      C      0.494310000000     0.817330000000     0.688620000000     0.0590298  
C96      C      0.488300000000     0.689660000000     0.814050000000     0.0639802  
C97      C      0.491920000000     0.305920000000     0.860150000000    -0.121395   
C98      C      0.500440000000     0.173290000000     0.619430000000     0.112124   
C99      C      0.504250000000     0.122510000000     0.671990000000     0.0989266  
C100     C      0.498710000000     0.204590000000     0.648960000000    -0.118999   
C101     C      0.469370000000     0.259850000000     0.719530000000    -0.0353959  
C102     C      0.466620000000     0.289760000000     0.750520000000    -0.0342534  
C103     C      0.497820000000     0.227300000000     0.722840000000    -0.0122863  
C104     C      0.502860000000     0.153040000000     0.702280000000    -0.112974   
C105     C      0.492340000000     0.287710000000     0.785330000000    -0.0142946  
C106     C      0.483860000000     0.360350000000     0.810820000000    -0.120434   
C107     C      0.521390000000     0.255620000000     0.788050000000    -0.0341202  
C108     C      0.483630000000     0.388830000000     0.843080000000     0.107085   
C109     C      0.492050000000     0.334910000000     0.892260000000     0.114597   
C110     C      0.523990000000     0.225700000000     0.757260000000    -0.0353551  
C111     C      0.499830000000     0.194610000000     0.690930000000     0.0628023  
C112     C      0.488930000000     0.318470000000     0.819110000000     0.065798   
C113     C      0.645680000000     0.205330000000     0.487670000000    -0.121042   
C114     C      0.884950000000     0.340020000000     0.487700000000     0.113953   
C115     C      0.833150000000     0.391500000000     0.489380000000     0.103873   
C116     C      0.855200000000     0.309150000000     0.484240000000    -0.119341   
C117     C      0.786650000000     0.249140000000     0.503260000000    -0.0349211  
C118     C      0.756360000000     0.218510000000     0.502150000000    -0.0343539  
C119     C      0.781290000000     0.286530000000     0.481800000000    -0.0121874  
C120     C      0.802500000000     0.361290000000     0.486170000000    -0.114267   
C121     C      0.719810000000     0.224580000000     0.479780000000    -0.0139359  
C122     C      0.694970000000     0.151210000000     0.478040000000    -0.119606   
C123     C      0.714580000000     0.261690000000     0.457890000000    -0.0345899  
C124     C      0.663340000000     0.122270000000     0.481800000000     0.104837   
C125     C      0.614230000000     0.175860000000     0.491980000000     0.115351   
C126     C      0.744990000000     0.292270000000     0.458820000000    -0.0349504  
C127     C      0.813320000000     0.319420000000     0.483840000000     0.0632995  
C128     C      0.686380000000     0.193240000000     0.481160000000     0.0649881  
C129     C      0.859220000000     0.705070000000     0.509430000000    -0.113583   
C130     C      0.619730000000     0.839590000000     0.498430000000     0.106878   
C131     C      0.671230000000     0.891400000000     0.500130000000     0.111089   
C132     C      0.649700000000     0.808770000000     0.498290000000    -0.116477   
C133     C      0.718070000000     0.750680000000     0.523850000000    -0.0342547  
C134     C      0.748450000000     0.720140000000     0.524930000000    -0.035134   
C135     C      0.723690000000     0.786720000000     0.500280000000    -0.0126494  
C136     C      0.702060000000     0.861280000000     0.500130000000    -0.117903   
C137     C      0.785220000000     0.725030000000     0.502640000000    -0.011742   
C138     C      0.809000000000     0.651380000000     0.502820000000    -0.111745   
C139     C      0.790740000000     0.760890000000     0.478850000000    -0.0352025  
C140     C      0.840570000000     0.622220000000     0.504340000000     0.0944271  
C141     C      0.890670000000     0.675390000000     0.511270000000     0.106854   
C142     C      0.760320000000     0.791370000000     0.477660000000    -0.0341412  
C143     C      0.691470000000     0.819330000000     0.499420000000     0.0639739  
C144     C      0.818180000000     0.693320000000     0.504840000000     0.0610496  
C145     C      0.146060000000     0.304250000000     0.488710000000    -0.122033   
C146     C      0.384770000000     0.169270000000     0.487110000000     0.114489   
C147     C      0.332900000000     0.117880000000     0.489510000000     0.103483   
C148     C      0.355080000000     0.200130000000     0.483450000000    -0.12062    
C149     C      0.286920000000     0.260420000000     0.502420000000    -0.0350426  
C150     C      0.256710000000     0.291110000000     0.501340000000    -0.0345825  
C151     C      0.281240000000     0.222860000000     0.481330000000    -0.0127613  
C152     C      0.302290000000     0.148110000000     0.486150000000    -0.114941   
C153     C      0.219920000000     0.284900000000     0.479430000000    -0.0142331  
C154     C      0.195150000000     0.358230000000     0.477240000000    -0.120259   
C155     C      0.214360000000     0.247640000000     0.457920000000    -0.0349065  
C156     C      0.163640000000     0.387230000000     0.481360000000     0.105285   
C157     C      0.114770000000     0.333790000000     0.493490000000     0.116419   
C158     C      0.244700000000     0.217010000000     0.458770000000    -0.035157   
C159     C      0.313190000000     0.189920000000     0.483380000000     0.0633294  
C160     C      0.186570000000     0.316250000000     0.481040000000     0.0652957  
C161     C      0.359160000000     0.804760000000     0.513450000000    -0.114027   
C162     C      0.120200000000     0.669850000000     0.497120000000     0.105346   
C163     C      0.171480000000     0.618120000000     0.503300000000     0.111342   
C164     C      0.150230000000     0.700640000000     0.497320000000    -0.116621   
C165     C      0.222460000000     0.756750000000     0.476320000000    -0.0345647  
C166     C      0.252750000000     0.787360000000     0.478240000000    -0.035371   
C167     C      0.223970000000     0.722520000000     0.502930000000    -0.0132597  
C168     C      0.202310000000     0.648190000000     0.503840000000    -0.119503   
C169     C      0.285130000000     0.784430000000     0.506880000000    -0.0117954  
C170     C      0.308910000000     0.858070000000     0.504280000000    -0.111361   
C171     C      0.286310000000     0.750390000000     0.533780000000    -0.0354075  
C172     C      0.340400000000     0.887320000000     0.505140000000     0.0947591  
C173     C      0.390510000000     0.834550000000     0.514610000000     0.107631   
C174     C      0.256160000000     0.719740000000     0.531740000000    -0.0344509  
C175     C      0.191810000000     0.690030000000     0.501100000000     0.0639632  
C176     C      0.318090000000     0.816240000000     0.508170000000     0.0609512  
C177     C      0.856370000000     0.500500000000     0.304690000000    -0.118475   
C178     C      0.617010000000     0.516940000000     0.169830000000     0.100175   
C179     C      0.668570000000     0.510840000000     0.118400000000     0.0950438  
C180     C      0.646980000000     0.517500000000     0.200720000000    -0.110833   
C181     C      0.719800000000     0.539640000000     0.256400000000    -0.0357046  
C182     C      0.750360000000     0.538060000000     0.286760000000    -0.0340762  
C183     C      0.720810000000     0.512350000000     0.222710000000    -0.0106177  
C184     C      0.699280000000     0.510970000000     0.148520000000    -0.108847   
C185     C      0.782450000000     0.509000000000     0.284190000000    -0.0131669  
C186     C      0.806420000000     0.512780000000     0.357700000000    -0.114949   
C187     C      0.783040000000     0.481390000000     0.250710000000    -0.0340889  
C188     C      0.837800000000     0.511100000000     0.387020000000     0.0995808  
C189     C      0.887540000000     0.498300000000     0.334620000000     0.113803   
C190     C      0.752690000000     0.483160000000     0.220270000000    -0.0355619  
C191     C      0.688640000000     0.513950000000     0.190260000000     0.0593477  
C192     C      0.815480000000     0.507630000000     0.315970000000     0.0635606  
C193     C      0.153000000000     0.484730000000     0.311140000000    -0.121906   
C194     C      0.391000000000     0.498790000000     0.175880000000     0.102899   
C195     C      0.338220000000     0.496660000000     0.125450000000     0.106502   
C196     C      0.362000000000     0.495050000000     0.207450000000    -0.115368   
C197     C      0.292550000000     0.510230000000     0.268340000000    -0.0354222  
C198     C      0.262450000000     0.507280000000     0.299100000000    -0.0345482  
C199     C      0.288750000000     0.487790000000     0.231340000000    -0.0125303  
C200     C      0.308350000000     0.492960000000     0.156340000000    -0.117834   
C201     C      0.227760000000     0.481950000000     0.293510000000    -0.0143629  
C202     C      0.201530000000     0.480650000000     0.366560000000    -0.120456   
C203     C      0.224470000000     0.458740000000     0.257000000000    -0.0349945  
C204     C      0.168940000000     0.482740000000     0.394660000000     0.105833   
C205     C      0.120580000000     0.487240000000     0.339670000000     0.115229   
C206     C      0.254580000000     0.461600000000     0.226320000000    -0.0355367  
C207     C      0.320060000000     0.491930000000     0.197980000000     0.0616322  
C208     C      0.193760000000     0.481880000000     0.324280000000     0.0651785  
C209     C      0.148910000000     0.489100000000     0.707550000000    -0.114418   
C210     C      0.389480000000     0.478980000000     0.841270000000     0.110682   
C211     C      0.337580000000     0.482030000000     0.892530000000     0.109588   
C212     C      0.359680000000     0.476200000000     0.810300000000    -0.120677   
C213     C      0.291460000000     0.499660000000     0.750900000000    -0.0345262  
C214     C      0.260740000000     0.501070000000     0.720660000000    -0.0351094  
C215     C      0.285600000000     0.477090000000     0.787550000000    -0.0132564  
C216     C      0.306940000000     0.479390000000     0.862270000000    -0.119481   
C217     C      0.223280000000     0.480060000000     0.726310000000    -0.0124916  
C218     C      0.198080000000     0.482150000000     0.652980000000    -0.116873   
C219     C      0.217650000000     0.456950000000     0.762630000000    -0.0352078  
C220     C      0.166220000000     0.486280000000     0.624320000000     0.104999   
C221     C      0.117160000000     0.493530000000     0.678350000000     0.108861   
C222     C      0.248410000000     0.455470000000     0.792850000000    -0.0345753  
C223     C      0.317750000000     0.477110000000     0.820440000000     0.0639215  
C224     C      0.189680000000     0.483440000000     0.695140000000     0.0625729  
C225     C      0.699950000000     0.492200000000     0.854010000000    -0.114112   
C226     C      0.885180000000     0.506410000000     0.668210000000     0.0948553  
C227     C      0.835130000000     0.513640000000     0.615460000000     0.0987122  
C228     C      0.854320000000     0.505210000000     0.698150000000    -0.107973   
C229     C      0.782130000000     0.474910000000     0.749150000000    -0.0354716  
C230     C      0.751690000000     0.472380000000     0.779430000000    -0.0340236  
C231     C      0.779760000000     0.504870000000     0.717930000000    -0.010321   
C232     C      0.803490000000     0.512850000000     0.644680000000    -0.110079   
C233     C      0.718230000000     0.499960000000     0.779450000000    -0.0129118  
C234     C      0.645440000000     0.503940000000     0.805610000000    -0.117159   
C235     C      0.715370000000     0.529400000000     0.747690000000    -0.0339929  
C236     C      0.617210000000     0.502950000000     0.838090000000     0.106728   
C237     C      0.671180000000     0.490840000000     0.886270000000     0.108208   
C238     C      0.745790000000     0.531770000000     0.717180000000    -0.0357371  
C239     C      0.812890000000     0.507970000000     0.686520000000     0.0589528  
C240     C      0.687370000000     0.498760000000     0.813360000000     0.0635354  
C241     C      0.802690000000     0.860680000000     0.020410000000    -0.110383   
C242     C      0.666770000000     0.620500000000     0.002350000000     0.0862913  
C243     C      0.615080000000     0.671280000000     0.011700000000     0.0973522  
C244     C      0.697320000000     0.650900000000     0.002160000000    -0.118361   
C245     C      0.750260000000     0.725380000000     0.977510000000    -0.0247191  
C246     C      0.780500000000     0.756220000000     0.977670000000    -0.0274135  
C247     C      0.718900000000     0.725080000000     0.007430000000    -0.0225916  
C248     C      0.644970000000     0.702420000000     0.012280000000    -0.11177    
C249     C      0.780430000000     0.787290000000     0.008040000000    -0.0177478  
C250     C      0.853280000000     0.812210000000     0.997130000000    -0.0991739  
C251     C      0.749220000000     0.786500000000     0.038270000000    -0.0357026  
C252     C      0.882870000000     0.843550000000     0.998060000000     0.100357   
C253     C      0.833020000000     0.891600000000     0.022180000000     0.104081   
C254     C      0.718720000000     0.756010000000     0.037760000000    -0.0328831  
C255     C      0.686660000000     0.692430000000     0.007220000000     0.0630624  
C256     C      0.812510000000     0.820470000000     0.008210000000     0.0501397  
C257     C      0.857070000000     0.205020000000     0.024680000000    -0.122341   
C258     C      0.619440000000     0.339010000000     0.997180000000     0.118602   
C259     C      0.671040000000     0.390430000000     0.003720000000     0.0974516  
C260     C      0.649210000000     0.308080000000     0.998090000000    -0.10926    
C261     C      0.715490000000     0.250230000000     0.028670000000    -0.0360163  
C262     C      0.745860000000     0.219990000000     0.032150000000    -0.0326049  
C263     C      0.722660000000     0.286030000000     0.005250000000    -0.019453   
C264     C      0.701590000000     0.360270000000     0.004860000000    -0.112579   
C265     C      0.784010000000     0.225100000000     0.012450000000    -0.0242441  
C266     C      0.807180000000     0.151730000000     0.012600000000    -0.119543   
C267     C      0.791120000000     0.260740000000     0.988840000000    -0.0239306  
C268     C      0.838460000000     0.122520000000     0.014900000000     0.104664   
C269     C      0.888140000000     0.175140000000     0.027450000000     0.117368   
C270     C      0.760710000000     0.290890000000     0.985210000000    -0.0268666  
C271     C      0.690790000000     0.318530000000     0.002390000000     0.0544132  
C272     C      0.816500000000     0.193480000000     0.016570000000     0.0682809  
C273     C      0.146620000000     0.802800000000     0.005460000000    -0.117859   
C274     C      0.386590000000     0.671150000000     0.007840000000     0.104268   
C275     C      0.335330000000     0.619190000000     0.003260000000     0.109523   
C276     C      0.356510000000     0.701710000000     0.009250000000    -0.119989   
C277     C      0.287320000000     0.759980000000     0.987010000000    -0.024962   
C278     C      0.256710000000     0.790140000000     0.988130000000    -0.0249857  
C279     C      0.282560000000     0.722970000000     0.009130000000    -0.0231696  
C280     C      0.304410000000     0.649020000000     0.004540000000    -0.12226    
C281     C      0.220710000000     0.783800000000     0.011270000000    -0.0233704  
C282     C      0.196330000000     0.856760000000     0.014730000000    -0.122488   
C283     C      0.216090000000     0.747000000000     0.033690000000    -0.0338682  
C284     C      0.164650000000     0.885620000000     0.013260000000     0.110001   
C285     C      0.115070000000     0.832260000000     0.003590000000     0.104483   
C286     C      0.246740000000     0.716880000000     0.032660000000    -0.0337414  
C287     C      0.314880000000     0.690820000000     0.007600000000     0.0660433  
C288     C      0.187440000000     0.814920000000     0.010910000000     0.0670435  
C289     C      0.155160000000     0.198600000000     0.020740000000    -0.120379   
C290     C      0.392360000000     0.336120000000     0.994110000000     0.113767   
C291     C      0.339390000000     0.386310000000     0.996560000000     0.112517   
C292     C      0.363250000000     0.304280000000     0.995340000000    -0.125172   
C293     C      0.291670000000     0.244230000000     0.978440000000    -0.0215008  
C294     C      0.261690000000     0.213290000000     0.982540000000    -0.0281256  
C295     C      0.290020000000     0.280120000000     0.002850000000    -0.0357959  
C296     C      0.309500000000     0.355200000000     0.998350000000    -0.124497   
C297     C      0.229520000000     0.217360000000     0.011390000000    -0.0212586  
C298     C      0.203230000000     0.143770000000     0.009860000000    -0.119838   
C299     C      0.228770000000     0.252780000000     0.036600000000    -0.0369559  
C300     C      0.170610000000     0.115460000000     0.011580000000     0.103566   
C301     C      0.122880000000     0.169840000000     0.022970000000     0.111402   
C302     C      0.258400000000     0.283790000000     0.032200000000    -0.0299204  
C303     C      0.321270000000     0.313560000000     0.998310000000     0.0790396  
C304     C      0.195720000000     0.186030000000     0.014050000000     0.0636493  
C305     C      0.800520000000     0.000660000000     0.865040000000    -0.135175   
C306     C      0.667240000000     0.017870000000     0.623950000000     0.108006   
C307     C      0.615230000000     0.012960000000     0.675040000000     0.0973219  
C308     C      0.697750000000     0.018080000000     0.654360000000    -0.11791    
C309     C      0.752760000000     0.040210000000     0.727760000000    -0.0346616  
C310     C      0.782810000000     0.038520000000     0.758640000000    -0.0323654  
C311     C      0.718820000000     0.013320000000     0.728670000000    -0.0194392  
C312     C      0.644950000000     0.012730000000     0.706170000000    -0.113355   
C313     C      0.779750000000     0.009690000000     0.790970000000    -0.0229203  
C314     C      0.853200000000     0.013190000000     0.814890000000    -0.114096   
C315     C      0.745910000000     0.982570000000     0.791560000000    -0.0255111  
C316     C      0.882580000000     0.011590000000     0.846210000000     0.0937542  
C317     C      0.830560000000     0.998540000000     0.896210000000     0.123996   
C318     C      0.715740000000     0.984490000000     0.760890000000    -0.0273833  
C319     C      0.686790000000     0.014990000000     0.696000000000     0.0629818  
C320     C      0.811580000000     0.007970000000     0.824040000000     0.0699973  
C321     C      0.144610000000     0.012180000000     0.801080000000    -0.120163   
C322     C      0.386390000000     0.997850000000     0.669100000000     0.093916   
C323     C      0.335540000000     0.998540000000     0.616680000000     0.0982198  
C324     C      0.355940000000     0.997680000000     0.699530000000    -0.104294   
C325     C      0.286840000000     0.023410000000     0.756650000000    -0.0515813  
C326     C      0.255900000000     0.025190000000     0.786590000000    -0.0250195  
C327     C      0.281400000000     0.999990000000     0.720490000000     0.00460868 
C328     C      0.304300000000     0.998640000000     0.646340000000    -0.106289   
C329     C      0.218660000000     0.003840000000     0.780980000000    -0.0299517  
C330     C      0.194800000000     0.002730000000     0.854410000000    -0.132347   
C331     C      0.213150000000     0.980420000000     0.744910000000    -0.0177509  
C332     C      0.163400000000     0.004440000000     0.883680000000     0.112392   
C333     C      0.113320000000     0.014420000000     0.831010000000     0.111068   
C334     C      0.244190000000     0.978410000000     0.715080000000    -0.0444847  
C335     C      0.314240000000     0.998540000000     0.688410000000     0.0543879  
C336     C      0.185590000000     0.006120000000     0.812590000000     0.0722693  
C337     C      0.306320000000     0.003770000000     0.351370000000    -0.140594   
C338     C      0.172380000000     0.024250000000     0.112140000000     0.108245   
C339     C      0.123790000000     0.013110000000     0.165470000000     0.113666   
C340     C      0.204290000000     0.026560000000     0.141100000000    -0.120672   
C341     C      0.266900000000     0.002990000000     0.207600000000    -0.0429133  
C342     C      0.296820000000     0.001010000000     0.238650000000    -0.040711   
C343     C      0.229020000000     0.022820000000     0.214770000000    -0.0113957  
C344     C      0.154790000000     0.015270000000     0.195140000000    -0.122753   
C345     C      0.289440000000     0.018710000000     0.277560000000    -0.0157267  
C346     C      0.361800000000     0.018720000000     0.304970000000    -0.1245     
C347     C      0.252150000000     0.039700000000     0.284220000000    -0.0344858  
C348     C      0.389470000000     0.014400000000     0.337650000000     0.108249   
C349     C      0.334600000000     0.998970000000     0.383820000000     0.130593   
C350     C      0.222360000000     0.041790000000     0.253220000000    -0.0364401  
C351     C      0.195700000000     0.021950000000     0.183230000000     0.0626163  
C352     C      0.319660000000     0.014000000000     0.311720000000     0.0708866  
C353     C      0.858360000000     0.012700000000     0.209520000000    -0.113955   
C354     C      0.617090000000     0.028140000000     0.341860000000     0.110179   
C355     C      0.668490000000     0.026590000000     0.393720000000     0.109992   
C356     C      0.647230000000     0.030330000000     0.311180000000    -0.121505   
C357     C      0.715760000000     0.005310000000     0.253210000000    -0.0416743  
C358     C      0.746720000000     0.002920000000     0.223370000000    -0.0430528  
C359     C      0.721590000000     0.028520000000     0.289440000000    -0.0120355  
C360     C      0.699420000000     0.028490000000     0.363810000000    -0.120779   
C361     C      0.784410000000     0.023440000000     0.229080000000    -0.0102658  
C362     C      0.808710000000     0.022910000000     0.155840000000    -0.114038   
C363     C      0.790250000000     0.046860000000     0.265110000000    -0.0363808  
C364     C      0.840030000000     0.019040000000     0.126720000000     0.0979987  
C365     C      0.889600000000     0.008360000000     0.179740000000     0.101609   
C366     C      0.759170000000     0.049480000000     0.294880000000    -0.0350107  
C367     C      0.689050000000     0.029660000000     0.321850000000     0.0626022  
C368     C      0.817640000000     0.019920000000     0.197740000000     0.059263   
C369     C      0.017420000000     0.202290000000     0.856690000000    -0.117753   
C370     C      0.002400000000     0.336460000000     0.619110000000     0.107508   
C371     C      0.008200000000     0.387320000000     0.671480000000     0.10161    
C372     C      0.002380000000     0.305240000000     0.648580000000    -0.130444   
C373     C      0.026150000000     0.245440000000     0.715940000000    -0.0322984  
C374     C      0.026220000000     0.215060000000     0.746380000000    -0.0364321  
C375     C      0.004880000000     0.282700000000     0.722240000000    -0.0245313  
C376     C      0.008630000000     0.356870000000     0.701720000000    -0.117799   
C377     C      0.005360000000     0.221660000000     0.783680000000    -0.0189921  
C378     C      0.998780000000     0.149320000000     0.808410000000    -0.104949   
C379     C      0.983740000000     0.258600000000     0.789860000000    -0.0283028  
C380     C      0.999740000000     0.120670000000     0.840270000000     0.104529   
C381     C      0.019110000000     0.172910000000     0.888270000000     0.113153   
C382     C      0.983330000000     0.288790000000     0.759330000000    -0.0241693  
C383     C      0.005360000000     0.315320000000     0.690430000000     0.0694617  
C384     C      0.007000000000     0.190590000000     0.816700000000     0.0567191  
C385     C      0.983460000000     0.858130000000     0.808630000000    -0.104775   
C386     C      0.998280000000     0.616960000000     0.672540000000     0.0928925  
C387     C      0.997210000000     0.668960000000     0.621300000000     0.0969674  
C388     C      0.997140000000     0.646890000000     0.703730000000    -0.103571   
C389     C      0.973620000000     0.715160000000     0.763920000000    -0.0351117  
C390     C      0.972600000000     0.745830000000     0.794470000000    -0.0362923  
C391     C      0.994970000000     0.721530000000     0.726590000000    -0.00100759 
C392     C      0.995720000000     0.699650000000     0.651700000000    -0.10513    
C393     C      0.992580000000     0.783860000000     0.788410000000     0.000894896
C394     C      0.995260000000     0.808630000000     0.862130000000    -0.0939726  
C395     C      0.014120000000     0.790160000000     0.751280000000    -0.0443554  
C396     C      0.994480000000     0.840610000000     0.891160000000     0.0901283  
C397     C      0.982020000000     0.889870000000     0.838270000000     0.103656   
C398     C      0.015440000000     0.759440000000     0.720920000000    -0.0427433  
C399     C      0.995870000000     0.688990000000     0.693670000000     0.0554787  
C400     C      0.990550000000     0.817220000000     0.820200000000     0.0528067  
C401     C      0.020170000000     0.854890000000     0.201700000000    -0.124875   
C402     C      0.007690000000     0.619580000000     0.339770000000     0.11489    
C403     C      0.014250000000     0.672080000000     0.390370000000     0.104304   
C404     C      0.007710000000     0.648870000000     0.308430000000    -0.124575   
C405     C      0.030860000000     0.715190000000     0.247560000000    -0.0341058  
C406     C      0.029990000000     0.744850000000     0.216390000000    -0.0333342  
C407     C      0.010360000000     0.722220000000     0.285140000000    -0.0221742  
C408     C      0.014660000000     0.702240000000     0.359690000000    -0.11951    
C409     C      0.008940000000     0.782140000000     0.222440000000    -0.0247824  
C410     C      0.001950000000     0.805670000000     0.149460000000    -0.127031   
C411     C      0.988190000000     0.789090000000     0.259780000000    -0.025462   
C412     C      0.002570000000     0.837200000000     0.120290000000     0.0947673  
C413     C      0.021530000000     0.886050000000     0.171890000000     0.117359   
C414     C      0.988760000000     0.759350000000     0.290800000000    -0.0262916  
C415     C      0.011090000000     0.690750000000     0.318180000000     0.0667845  
C416     C      0.010020000000     0.814640000000     0.190680000000     0.0705407  
C417     C      0.029590000000     0.150730000000     0.204000000000    -0.120967   
C418     C      0.017560000000     0.391450000000     0.339370000000     0.112296   
C419     C      0.023210000000     0.339840000000     0.390770000000     0.109872   
C420     C      0.019820000000     0.361590000000     0.308300000000    -0.121514   
C421     C      0.044470000000     0.293390000000     0.248310000000    -0.035916   
C422     C      0.044420000000     0.262730000000     0.217810000000    -0.0358667  
C423     C      0.023780000000     0.287210000000     0.286000000000    -0.0115331  
C424     C      0.025680000000     0.309200000000     0.360500000000    -0.120644   
C425     C      0.023830000000     0.225110000000     0.224330000000    -0.0120159  
C426     C      0.018840000000     0.200740000000     0.150800000000    -0.12033    
C427     C      0.002910000000     0.219110000000     0.261840000000    -0.0428469  
C428     C      0.017680000000     0.168820000000     0.121830000000     0.106994   
C429     C      0.028540000000     0.118970000000     0.174480000000     0.11336    
C430     C      0.002850000000     0.249720000000     0.292220000000    -0.0428166  
C431     C      0.023470000000     0.319750000000     0.318600000000     0.0621302  
C432     C      0.024340000000     0.191890000000     0.192520000000     0.0625742  
H1       H      0.973360000000     0.975860000000     0.037820000000    -1.25842    
H2       H      0.028530000000     0.028640000000     0.029480000000    -1.07343    
H3       H      0.964990000000     0.075970000000     0.971440000000    -0.501515   
H4       H      0.069070000000     0.966100000000     0.965430000000    -0.5064     
H5       H      0.974490000000     0.534760000000     0.474600000000    -1.27111    
H6       H      0.027200000000     0.479490000000     0.481570000000    -1.09065    
H7       H      0.962490000000     0.435210000000     0.540970000000    -0.524892   
H8       H      0.072640000000     0.539670000000     0.544470000000    -0.514761   
H9       H      0.473950000000     0.974780000000     0.474230000000    -1.26297    
H10      H      0.526570000000     0.029900000000     0.480970000000    -1.0572     
H11      H      0.572450000000     0.969710000000     0.543580000000    -0.488701   
H12      H      0.462300000000     0.074090000000     0.541130000000    -0.552009   
H13      H      0.471850000000     0.533990000000     0.034830000000    -1.24956    
H14      H      0.478380000000     0.479390000000     0.981640000000    -1.02542    
H15      H      0.541030000000     0.436140000000     0.044010000000    -0.508875   
H16      H      0.538690000000     0.541710000000     0.934700000000    -0.505765   
H17      H      0.515890000000     0.179760000000     0.423000000000     0.0145502  
H18      H      0.503850000000     0.331200000000     0.091670000000     0.0102223  
H19      H      0.465650000000     0.255320000000     0.318150000000     0.0353944  
H20      H      0.554790000000     0.249440000000     0.193990000000     0.0350243  
H21      H      0.507340000000     0.276740000000     0.141520000000     0.0547781  
H22      H      0.560980000000     0.195830000000     0.246710000000     0.0346605  
H23      H      0.499090000000     0.365010000000     0.239710000000     0.0569734  
H24      H      0.516090000000     0.232500000000     0.370280000000     0.0566433  
H25      H      0.520880000000     0.137960000000     0.276750000000     0.0552934  
H26      H      0.459170000000     0.308470000000     0.265520000000     0.0354997  
H27      H      0.521290000000     0.085730000000     0.330230000000     0.0101922  
H28      H      0.510070000000     0.589760000000     0.179110000000     0.0181814  
H29      H      0.505130000000     0.920760000000     0.331240000000     0.0103537  
H30      H      0.464900000000     0.694440000000     0.259430000000     0.0355362  
H31      H      0.550600000000     0.820020000000     0.241890000000     0.0354066  
H32      H      0.504380000000     0.871500000000     0.276080000000     0.0559415  
H33      H      0.550610000000     0.767270000000     0.187980000000     0.0356252  
H34      H      0.516010000000     0.772520000000     0.362970000000     0.0571855  
H35      H      0.511540000000     0.643060000000     0.231150000000     0.0548519  
H36      H      0.506480000000     0.735630000000     0.135620000000     0.054429   
H37      H      0.465110000000     0.746910000000     0.313190000000     0.0355231  
H38      H      0.505860000000     0.681630000000     0.084080000000     0.0178077  
H39      H      0.490090000000     0.921560000000     0.680210000000     0.0206354  
H40      H      0.501690000000     0.587480000000     0.829510000000     0.0104267  
H41      H      0.439930000000     0.810090000000     0.752490000000     0.0370748  
H42      H      0.540650000000     0.694970000000     0.747840000000     0.0355332  
H43      H      0.500160000000     0.637310000000     0.774540000000     0.054968   
H44      H      0.543390000000     0.748930000000     0.695330000000     0.0363766  
H45      H      0.476050000000     0.733820000000     0.861810000000     0.0574856  
H46      H      0.486650000000     0.867570000000     0.732030000000     0.0554982  
H47      H      0.502670000000     0.776130000000     0.636740000000     0.054835   
H48      H      0.436650000000     0.755910000000     0.804520000000     0.0360511  
H49      H      0.506680000000     0.830460000000     0.585910000000     0.0195965  
H50      H      0.506290000000     0.090730000000     0.682250000000     0.0172876  
H51      H      0.479990000000     0.420910000000     0.834340000000     0.0158643  
H52      H      0.546730000000     0.201420000000     0.760260000000     0.0362452  
H53      H      0.443730000000     0.313920000000     0.747670000000     0.0348304  
H54      H      0.481270000000     0.371390000000     0.779380000000     0.0554133  
H55      H      0.448570000000     0.261640000000     0.693470000000     0.0357932  
H56      H      0.494650000000     0.273220000000     0.867010000000     0.0568169  
H57      H      0.503460000000     0.144030000000     0.734460000000     0.0553253  
H58      H      0.496880000000     0.236430000000     0.638940000000     0.0558901  
H59      H      0.542350000000     0.253700000000     0.813980000000     0.0357687  
H60      H      0.499460000000     0.182470000000     0.587290000000     0.010963   
H61      H      0.823350000000     0.423420000000     0.491500000000     0.0157777  
H62      H      0.672210000000     0.090170000000     0.478680000000     0.0160875  
H63      H      0.740110000000     0.320320000000     0.441330000000     0.0358762  
H64      H      0.761020000000     0.190550000000     0.519870000000     0.0352525  
H65      H      0.726130000000     0.140560000000     0.472590000000     0.0550267  
H66      H      0.813850000000     0.243850000000     0.521860000000     0.0357295  
H67      H      0.638790000000     0.237970000000     0.491020000000     0.0569416  
H68      H      0.770510000000     0.370730000000     0.486410000000     0.0556961  
H69      H      0.865150000000     0.277350000000     0.481660000000     0.0563056  
H70      H      0.686930000000     0.267080000000     0.439990000000     0.0355196  
H71      H      0.916890000000     0.330290000000     0.487980000000     0.011681   
H72      H      0.680840000000     0.923420000000     0.501010000000     0.0112069  
H73      H      0.831110000000     0.590230000000     0.501890000000     0.0186437  
H74      H      0.765350000000     0.818380000000     0.458630000000     0.0361363  
H75      H      0.743530000000     0.693110000000     0.543970000000     0.0359297  
H76      H      0.777490000000     0.640980000000     0.499230000000     0.0542904  
H77      H      0.690490000000     0.746370000000     0.542140000000     0.0356153  
H78      H      0.866550000000     0.737660000000     0.512320000000     0.0571171  
H79      H      0.733980000000     0.870880000000     0.501460000000     0.0569664  
H80      H      0.640060000000     0.776790000000     0.497050000000     0.0559561  
H81      H      0.818500000000     0.765260000000     0.460830000000     0.0364847  
H82      H      0.587860000000     0.829730000000     0.497980000000     0.0178578  
H83      H      0.323070000000     0.086000000000     0.491960000000     0.0152454  
H84      H      0.172400000000     0.419290000000     0.477620000000     0.0147568  
H85      H      0.239570000000     0.188810000000     0.441580000000     0.034812   
H86      H      0.261610000000     0.319200000000     0.518780000000     0.0350461  
H87      H      0.226200000000     0.368770000000     0.470980000000     0.0551911  
H88      H      0.314300000000     0.265800000000     0.520710000000     0.0350424  
H89      H      0.139270000000     0.271670000000     0.492760000000     0.0563698  
H90      H      0.270290000000     0.138720000000     0.486640000000     0.0547171  
H91      H      0.365080000000     0.231880000000     0.480490000000     0.055619   
H92      H      0.186470000000     0.242160000000     0.440410000000     0.034704   
H93      H      0.416740000000     0.178940000000     0.487150000000     0.0100852  
H94      H      0.181010000000     0.586140000000     0.505710000000     0.00841508 
H95      H      0.330930000000     0.919190000000     0.501600000000     0.0204129  
H96      H      0.257730000000     0.694140000000     0.553180000000     0.0357028  
H97      H      0.251240000000     0.812890000000     0.456730000000     0.0358444  
H98      H      0.277360000000     0.868380000000     0.500830000000     0.0550568  
H99      H      0.198230000000     0.759530000000     0.453520000000     0.0356149  
H100     H      0.366750000000     0.772250000000     0.516420000000     0.0559767  
H101     H      0.234200000000     0.638660000000     0.506240000000     0.0556466  
H102     H      0.140770000000     0.732650000000     0.495430000000     0.0557261  
H103     H      0.310380000000     0.747580000000     0.556740000000     0.0360755  
H104     H      0.088380000000     0.679660000000     0.494540000000     0.0165526  
H105     H      0.678330000000     0.508190000000     0.086520000000     0.0194603  
H106     H      0.828590000000     0.515910000000     0.418810000000     0.0163511  
H107     H      0.753850000000     0.461220000000     0.195070000000     0.0367273  
H108     H      0.749250000000     0.560090000000     0.311860000000     0.0354853  
H109     H      0.775040000000     0.517750000000     0.367910000000     0.0552261  
H110     H      0.695770000000     0.562690000000     0.258890000000     0.0365044  
H111     H      0.863930000000     0.496520000000     0.272300000000     0.0569133  
H112     H      0.731230000000     0.508790000000     0.139120000000     0.0547452  
H113     H      0.637460000000     0.519660000000     0.232680000000     0.0551571  
H114     H      0.806750000000     0.458010000000     0.248190000000     0.0358337  
H115     H      0.585120000000     0.519220000000     0.179470000000     0.0198493  
H116     H      0.327710000000     0.497170000000     0.093720000000     0.0066087  
H117     H      0.177270000000     0.481720000000     0.427020000000     0.0133017  
H118     H      0.251100000000     0.443200000000     0.198650000000     0.034404   
H119     H      0.265620000000     0.525950000000     0.326630000000     0.035155   
H120     H      0.232760000000     0.478050000000     0.378030000000     0.0550628  
H121     H      0.318210000000     0.531040000000     0.273100000000     0.0350669  
H122     H      0.146630000000     0.486320000000     0.278270000000     0.0560184  
H123     H      0.276210000000     0.491350000000     0.147540000000     0.0536419  
H124     H      0.372590000000     0.494020000000     0.239120000000     0.0551287  
H125     H      0.198410000000     0.438470000000     0.252030000000     0.0343519  
H126     H      0.423030000000     0.501130000000     0.184930000000     0.0178468  
H127     H      0.327660000000     0.484530000000     0.924370000000     0.0118824  
H128     H      0.175090000000     0.484540000000     0.592130000000     0.0114442  
H129     H      0.243070000000     0.437210000000     0.820310000000     0.0352642  
H130     H      0.265890000000     0.519630000000     0.693360000000     0.0353718  
H131     H      0.229240000000     0.477510000000     0.641960000000     0.054698   
H132     H      0.319390000000     0.517250000000     0.745990000000     0.0351485  
H133     H      0.142060000000     0.491140000000     0.740290000000     0.0567867  
H134     H      0.274950000000     0.480430000000     0.871670000000     0.0559638  
H135     H      0.369580000000     0.473520000000     0.778500000000     0.0550469  
H136     H      0.189420000000     0.439870000000     0.767680000000     0.0358595  
H137     H      0.421460000000     0.478700000000     0.831670000000     0.0130307  
H138     H      0.826330000000     0.516850000000     0.583360000000     0.0188305  
H139     H      0.585200000000     0.507780000000     0.829920000000     0.0115528  
H140     H      0.743270000000     0.555330000000     0.693610000000     0.0362792  
H141     H      0.754370000000     0.448700000000     0.802850000000     0.0362888  
H142     H      0.634280000000     0.508540000000     0.774450000000     0.0551282  
H143     H      0.807470000000     0.453180000000     0.750040000000     0.0373885  
H144     H      0.732510000000     0.488230000000     0.860560000000     0.0575704  
H145     H      0.771820000000     0.514980000000     0.634390000000     0.0546836  
H146     H      0.862930000000     0.502130000000     0.730300000000     0.0557222  
H147     H      0.690220000000     0.551350000000     0.747020000000     0.0355556  
H148     H      0.916760000000     0.503820000000     0.678760000000     0.0218606  
H149     H      0.583210000000     0.680520000000     0.015500000000     0.018944   
H150     H      0.913700000000     0.835140000000     0.988310000000     0.0223052  
H151     H      0.695340000000     0.756220000000     0.061600000000     0.0355083  
H152     H      0.803550000000     0.756020000000     0.953530000000     0.0362998  
H153     H      0.862680000000     0.781440000000     0.988110000000     0.054675   
H154     H      0.750990000000     0.702140000000     0.953510000000     0.0366865  
H155     H      0.771220000000     0.867910000000     0.029100000000     0.0546799  
H156     H      0.635400000000     0.734220000000     0.016080000000     0.0545305  
H157     H      0.729240000000     0.641810000000     0.998590000000     0.0643813  
H158     H      0.748550000000     0.809160000000     0.062800000000     0.0355341  
H159     H      0.676680000000     0.588810000000     0.998390000000     0.0306072  
H160     H      0.680720000000     0.422300000000     0.006700000000     0.0170361  
H161     H      0.829350000000     0.090680000000     0.010120000000     0.0150117  
H162     H      0.766880000000     0.317840000000     0.966440000000     0.0369924  
H163     H      0.739800000000     0.193010000000     0.050920000000     0.0342208  
H164     H      0.775960000000     0.141640000000     0.006480000000     0.0551897  
H165     H      0.686710000000     0.245930000000     0.045000000000     0.0338664  
H166     H      0.864170000000     0.237410000000     0.029680000000     0.05701    
H167     H      0.733380000000     0.369640000000     0.008740000000     0.05332    
H168     H      0.639640000000     0.276170000000     0.995340000000     0.0564928  
H169     H      0.820080000000     0.265100000000     0.972830000000     0.0372126  
H170     H      0.587600000000     0.329460000000     0.993960000000     0.0124318  
H171     H      0.325880000000     0.587210000000     0.000700000000     0.00558591 
H172     H      0.173660000000     0.917620000000     0.017100000000     0.010562   
H173     H      0.242550000000     0.688990000000     0.050590000000     0.0340511  
H174     H      0.260760000000     0.817990000000     0.970100000000     0.0368292  
H175     H      0.227680000000     0.867250000000     0.019280000000     0.0554182  
H176     H      0.314350000000     0.765300000000     0.968160000000     0.0363999  
H177     H      0.139670000000     0.770260000000     0.001370000000     0.0544628  
H178     H      0.272520000000     0.639360000000     0.002640000000     0.0543954  
H179     H      0.365890000000     0.733650000000     0.012330000000     0.0544716  
H180     H      0.188830000000     0.741600000000     0.052190000000     0.0345768  
H181     H      0.418400000000     0.681040000000     0.010010000000     0.0148815  
H182     H      0.328770000000     0.418010000000     0.997130000000     0.0114441  
H183     H      0.178690000000     0.083260000000     0.007480000000     0.0122646  
H184     H      0.256770000000     0.310550000000     0.052150000000     0.0313535  
H185     H      0.263130000000     0.186740000000     0.962320000000     0.0359352  
H186     H      0.234260000000     0.132400000000     0.005330000000     0.0520955  
H187     H      0.315610000000     0.240520000000     0.955460000000     0.0328163  
H188     H      0.148550000000     0.231310000000     0.023870000000     0.0546279  
H189     H      0.277290000000     0.363780000000     0.999940000000     0.0593594  
H190     H      0.373770000000     0.272560000000     0.995400000000     0.059294   
H191     H      0.205220000000     0.256650000000     0.059920000000     0.0342541  
H192     H      0.424490000000     0.327260000000     0.993120000000     0.0156008  
H193     H      0.583250000000     0.010930000000     0.684430000000     0.0173478  
H194     H      0.914190000000     0.016650000000     0.836740000000     0.0213226  
H195     H      0.690300000000     0.962890000000     0.762040000000     0.0377335  
H196     H      0.808110000000     0.060270000000     0.757490000000     0.0354689  
H197     H      0.863330000000     0.018230000000     0.783450000000     0.0556611  
H198     H      0.755740000000     0.063030000000     0.703520000000     0.0357431  
H199     H      0.768220000000     0.996670000000     0.872740000000     0.0675174  
H200     H      0.635160000000     0.010900000000     0.738060000000     0.0543579  
H201     H      0.729800000000     0.019670000000     0.645180000000     0.0551159  
H202     H      0.742950000000     0.959400000000     0.815450000000     0.0363047  
H203     H      0.677230000000     0.019750000000     0.592100000000     0.0100436  
H204     H      0.326240000000     0.999120000000     0.584560000000     0.0214363  
H205     H      0.172870000000     0.000740000000     0.915530000000     0.010463   
H206     H      0.239160000000     0.959520000000     0.687980000000     0.0389957  
H207     H      0.260840000000     0.043940000000     0.813810000000     0.0322274  
H208     H      0.226210000000     0.997910000000     0.864620000000     0.0664049  
H209     H      0.314730000000     0.041050000000     0.761570000000     0.0380127  
H210     H      0.137290000000     0.016130000000     0.768620000000     0.056428   
H211     H      0.272540000000     0.999750000000     0.636190000000     0.0550066  
H212     H      0.365160000000     0.996700000000     0.731620000000     0.0555795  
H213     H      0.184990000000     0.963170000000     0.739990000000     0.0341128  
H214     H      0.418170000000     0.997360000000     0.679340000000     0.0226948  
H215     H      0.092950000000     0.006610000000     0.176280000000     0.00949901 
H216     H      0.421660000000     0.019610000000     0.330450000000     0.0076351  
H217     H      0.193900000000     0.058060000000     0.259510000000     0.0346131  
H218     H      0.325110000000     0.984340000000     0.232660000000     0.0416826  
H219     H      0.373430000000     0.026610000000     0.274650000000     0.0549376  
H220     H      0.272890000000     0.987700000000     0.178500000000     0.0423444  
H221     H      0.273720000000     0.998360000000     0.356640000000     0.0680088  
H222     H      0.146740000000     0.010580000000     0.227230000000     0.0546158  
H223     H      0.235430000000     0.032160000000     0.130520000000     0.0536116  
H224     H      0.245880000000     0.054370000000     0.313590000000     0.0341685  
H225     H      0.180410000000     0.028120000000     0.079900000000     0.0122615  
H226     H      0.678120000000     0.024830000000     0.425690000000     0.0113143  
H227     H      0.830710000000     0.022390000000     0.094790000000     0.0197212  
H228     H      0.764530000000     0.068160000000     0.322060000000     0.034751   
H229     H      0.741500000000     0.984160000000     0.196200000000     0.0426123  
H230     H      0.777560000000     0.028820000000     0.145410000000     0.0535097  
H231     H      0.687610000000     0.988090000000     0.248280000000     0.0420382  
H232     H      0.865480000000     0.009420000000     0.242100000000     0.0538839  
H233     H      0.731290000000     0.027640000000     0.373630000000     0.0544637  
H234     H      0.637670000000     0.032260000000     0.279230000000     0.0534118  
H235     H      0.818770000000     0.063480000000     0.270110000000     0.0360011  
H236     H      0.585200000000     0.028150000000     0.331980000000     0.0106369  
H237     H      0.010740000000     0.419100000000     0.681620000000     0.0176717  
H238     H      0.991750000000     0.089240000000     0.832050000000     0.0210204  
H239     H      0.965960000000     0.316820000000     0.764720000000     0.0361657  
H240     H      0.043420000000     0.186880000000     0.741220000000     0.0349453  
H241     H      0.990670000000     0.139310000000     0.777560000000     0.0566561  
H242     H      0.043460000000     0.240090000000     0.687890000000     0.0332917  
H243     H      0.025310000000     0.234310000000     0.862810000000     0.0563209  
H244     H      0.011840000000     0.365910000000     0.733730000000     0.055102   
H245     H      0.999320000000     0.273490000000     0.638600000000     0.0649351  
H246     H      0.967010000000     0.264030000000     0.818270000000     0.0380491  
H247     H      0.999720000000     0.327280000000     0.587060000000     0.018819   
H248     H      0.997350000000     0.678980000000     0.589430000000     0.0225854  
H249     H      0.999520000000     0.831760000000     0.923000000000     0.0243246  
H250     H      0.033000000000     0.765340000000     0.693150000000     0.0356719  
H251     H      0.955330000000     0.740100000000     0.822480000000     0.0382218  
H252     H      0.000650000000     0.777330000000     0.872560000000     0.0448725  
H253     H      0.956940000000     0.686740000000     0.769340000000     0.0372275  
H254     H      0.977990000000     0.865070000000     0.776310000000     0.0578679  
H255     H      0.994060000000     0.731620000000     0.642110000000     0.0560618  
H256     H      0.997940000000     0.636890000000     0.735590000000     0.055467   
H257     H      0.030430000000     0.818810000000     0.745840000000     0.0371594  
H258     H      0.999390000000     0.584920000000     0.682090000000     0.0243342  
H259     H      0.016970000000     0.682270000000     0.422120000000     0.0151334  
H260     H      0.994760000000     0.828620000000     0.088920000000     0.0234044  
H261     H      0.971980000000     0.765310000000     0.319060000000     0.0362056  
H262     H      0.046640000000     0.739090000000     0.188010000000     0.034071   
H263     H      0.994230000000     0.774570000000     0.139900000000     0.0644965  
H264     H      0.048210000000     0.687110000000     0.242480000000     0.0342976  
H265     H      0.028240000000     0.861560000000     0.233550000000     0.057276   
H266     H      0.018030000000     0.734310000000     0.368490000000     0.0545705  
H267     H      0.004300000000     0.638680000000     0.276790000000     0.0554156  
H268     H      0.971380000000     0.817520000000     0.264910000000     0.0364534  
H269     H      0.004660000000     0.587530000000     0.330630000000     0.00810921 
H270     H      0.024700000000     0.330030000000     0.422690000000     0.0149568  
H271     H      0.011520000000     0.177910000000     0.090340000000     0.0126314  
H272     H      0.985800000000     0.244170000000     0.320390000000     0.0429777  
H273     H      0.061170000000     0.268180000000     0.189430000000     0.0341476  
H274     H      0.014160000000     0.232210000000     0.140530000000     0.0540573  
H275     H      0.061280000000     0.321680000000     0.242590000000     0.034098   
H276     H      0.034860000000     0.143490000000     0.236300000000     0.0545957  
H277     H      0.029310000000     0.277370000000     0.370020000000     0.0538245  
H278     H      0.017490000000     0.371270000000     0.276410000000     0.0542986  
H279     H      0.986060000000     0.190830000000     0.267580000000     0.0430815  
H280     H      0.013650000000     0.423230000000     0.329780000000     0.0110405  
N1       N      0.499280000000     0.381020000000     0.135680000000    -0.251887   
N2       N      0.517720000000     0.128720000000     0.380640000000    -0.270076   
N3       N      0.510170000000     0.876200000000     0.380540000000    -0.252827   
N4       N      0.507440000000     0.631570000000     0.127640000000    -0.238846   
N5       N      0.489530000000     0.630760000000     0.878520000000    -0.249723   
N6       N      0.498380000000     0.880200000000     0.629080000000    -0.231227   
N7       N      0.488680000000     0.377020000000     0.883670000000    -0.260772   
N8       N      0.502830000000     0.132500000000     0.630840000000    -0.248975   
N9       N      0.623080000000     0.133760000000     0.489070000000    -0.260959   
N10      N      0.874090000000     0.380920000000     0.490570000000    -0.25524    
N11      N      0.881440000000     0.633410000000     0.507850000000    -0.233341   
N12      N      0.630330000000     0.880640000000     0.499550000000    -0.254706   
N13      N      0.123550000000     0.375810000000     0.489600000000    -0.262252   
N14      N      0.373860000000     0.128420000000     0.490460000000    -0.256333   
N15      N      0.381230000000     0.876330000000     0.509500000000    -0.234271   
N16      N      0.130670000000     0.628880000000     0.500470000000    -0.255592   
N17      N      0.878330000000     0.504470000000     0.376200000000    -0.252168   
N18      N      0.627660000000     0.513150000000     0.128960000000    -0.231841   
N19      N      0.128520000000     0.486660000000     0.382070000000    -0.264888   
N20      N      0.379330000000     0.499260000000     0.135110000000    -0.253508   
N21      N      0.125780000000     0.491890000000     0.636160000000    -0.242132   
N22      N      0.378590000000     0.482750000000     0.882080000000    -0.265738   
N23      N      0.629410000000     0.497200000000     0.878440000000    -0.242515   
N24      N      0.875690000000     0.509870000000     0.627050000000    -0.230381   
N25      N      0.873320000000     0.883260000000     0.009900000000    -0.23623    
N26      N      0.625840000000     0.630550000000     0.006790000000    -0.228731   
N27      N      0.878990000000     0.133690000000     0.020760000000    -0.253332   
N28      N      0.630230000000     0.379870000000     0.000360000000    -0.253119   
N29      N      0.124120000000     0.874140000000     0.007920000000    -0.251968   
N30      N      0.376140000000     0.630190000000     0.004830000000    -0.257012   
N31      N      0.130280000000     0.127790000000     0.017060000000    -0.258632   
N32      N      0.380650000000     0.376910000000     0.995390000000    -0.264722   
N33      N      0.872040000000     0.004800000000     0.886880000000    -0.232537   
N34      N      0.626260000000     0.014900000000     0.634160000000    -0.245514   
N35      N      0.122650000000     0.009520000000     0.872760000000    -0.244299   
N36      N      0.376340000000     0.998720000000     0.627930000000    -0.225259   
N37      N      0.376520000000     0.005480000000     0.377180000000    -0.25729    
N38      N      0.132370000000     0.017470000000     0.124230000000    -0.269279   
N39      N      0.880460000000     0.011960000000     0.137810000000    -0.248806   
N40      N      0.627610000000     0.025350000000     0.382820000000    -0.267422   
N41      N      0.008930000000     0.131920000000     0.880240000000    -0.24888    
N42      N      0.004920000000     0.377200000000     0.630500000000    -0.250787   
N43      N      0.989120000000     0.881320000000     0.879870000000    -0.222821   
N44      N      0.998460000000     0.627820000000     0.631520000000    -0.223236   
N45      N      0.011120000000     0.877430000000     0.131080000000    -0.254167   
N46      N      0.010550000000     0.631080000000     0.380460000000    -0.260026   
N47      N      0.022180000000     0.127940000000     0.132820000000    -0.263392   
N48      N      0.018740000000     0.380690000000     0.380360000000    -0.268242   
O1       O      0.015470000000     0.110770000000     0.062570000000    -1.03594    
O2       O      0.005820000000     0.895220000000     0.061150000000    -0.780616   
O3       O      0.949640000000     0.006420000000     0.115560000000    -1.01195    
O4       O      0.062510000000     0.011060000000     0.109060000000    -1.08704    
O5       O      0.111540000000     0.012590000000     0.055610000000    -1.05489    
O6       O      0.895790000000     0.010350000000     0.067100000000    -0.785917   
O7       O      0.006510000000     0.947000000000     0.112210000000    -1.04524    
O8       O      0.015800000000     0.058600000000     0.112480000000    -1.09358    
O9       O      0.047690000000     0.963770000000     0.047580000000    -2.06985    
O10      O      0.965600000000     0.050070000000     0.052430000000    -2.0968     
O11      O      0.958520000000     0.960840000000     0.054310000000    -0.860214   
O12      O      0.011590000000     0.013370000000     0.013880000000    -2.5706     
O13      O      0.993800000000     0.899090000000     0.950340000000    -0.69021    
O14      O      0.006880000000     0.112720000000     0.950130000000    -0.934859   
O15      O      0.893950000000     0.952920000000     0.009810000000    -0.735464   
O16      O      0.107800000000     0.944720000000     0.005060000000    -0.935973   
O17      O      0.110400000000     0.058120000000     0.010780000000    -1.01835    
O18      O      0.895900000000     0.063530000000     0.017940000000    -0.770856   
O19      O      0.942780000000     0.006740000000     0.902080000000    -0.58942    
O20      O      0.053390000000     0.008020000000     0.894600000000    -0.629389   
O21      O      0.893820000000     0.005600000000     0.956410000000    -0.711467   
O22      O      0.106860000000     0.007000000000     0.943550000000    -0.922296   
O23      O      0.944000000000     0.899320000000     0.007130000000    -0.725357   
O24      O      0.948160000000     0.113690000000     0.013300000000    -0.945692   
O25      O      0.060110000000     0.109950000000     0.014340000000    -1.05674    
O26      O      0.054920000000     0.895140000000     0.008740000000    -0.773197   
O27      O      0.995560000000     0.951310000000     0.899010000000    -0.576961   
O28      O      0.003330000000     0.062230000000     0.898010000000    -0.637814   
O29      O      0.045470000000     0.048350000000     0.965140000000    -1.96887    
O30      O      0.961790000000     0.968640000000     0.969200000000    -1.57888    
O31      O      0.956070000000     0.049530000000     0.963760000000    -1.23853    
O32      O      0.041830000000     0.958960000000     0.958830000000    -1.22933    
O33      O      0.011740000000     0.398060000000     0.449870000000    -1.05363    
O34      O      0.009550000000     0.613780000000     0.450420000000    -0.792054   
O35      O      0.947660000000     0.506070000000     0.397440000000    -1.02929    
O36      O      0.059230000000     0.494820000000     0.400920000000    -1.10567    
O37      O      0.110050000000     0.492440000000     0.452050000000    -1.04101    
O38      O      0.894480000000     0.504610000000     0.446830000000    -0.784863   
O39      O      0.006690000000     0.561930000000     0.399130000000    -1.05265    
O40      O      0.011740000000     0.449840000000     0.399090000000    -1.08793    
O41      O      0.049230000000     0.543170000000     0.462650000000    -2.09808    
O42      O      0.962540000000     0.461130000000     0.460100000000    -2.1209     
O43      O      0.960010000000     0.550580000000     0.458530000000    -0.866738   
O44      O      0.011540000000     0.495640000000     0.497590000000    -2.58323    
O45      O      0.001400000000     0.610230000000     0.561280000000    -0.710728   
O46      O      0.002780000000     0.396290000000     0.561250000000    -0.958548   
O47      O      0.897440000000     0.562520000000     0.505220000000    -0.730113   
O48      O      0.111710000000     0.559170000000     0.504130000000    -0.940053   
O49      O      0.107710000000     0.446080000000     0.497360000000    -1.04393    
O50      O      0.892930000000     0.450610000000     0.496160000000    -0.756807   
O51      O      0.945760000000     0.505190000000     0.610860000000    -0.586456   
O52      O      0.056410000000     0.497770000000     0.615500000000    -0.628632   
O53      O      0.895200000000     0.509420000000     0.557640000000    -0.716951   
O54      O      0.108900000000     0.496590000000     0.565480000000    -0.918063   
O55      O      0.950950000000     0.612510000000     0.506510000000    -0.742664   
O56      O      0.943500000000     0.398170000000     0.497790000000    -0.957315   
O57      O      0.054710000000     0.396900000000     0.495320000000    -1.06408    
O58      O      0.061040000000     0.611500000000     0.501130000000    -0.777239   
O59      O      0.001150000000     0.557960000000     0.613010000000    -0.592038   
O60      O      0.003510000000     0.447010000000     0.613630000000    -0.639938   
O61      O      0.044810000000     0.458810000000     0.545310000000    -1.99032    
O62      O      0.965190000000     0.542460000000     0.543260000000    -1.59441    
O63      O      0.955310000000     0.462110000000     0.548960000000    -1.24638    
O64      O      0.045950000000     0.548140000000     0.551730000000    -1.24904    
O65      O      0.609290000000     0.017900000000     0.451920000000    -1.03533    
O66      O      0.393840000000     0.005010000000     0.447650000000    -0.780218   
O67      O      0.506260000000     0.946440000000     0.398620000000    -1.00807    
O68      O      0.511590000000     0.059520000000     0.398880000000    -1.07116    
O69      O      0.510860000000     0.111150000000     0.449920000000    -1.0719     
O70      O      0.508490000000     0.895650000000     0.450420000000    -0.822931   
O71      O      0.446140000000     0.003820000000     0.397160000000    -1.00036    
O72      O      0.558630000000     0.015480000000     0.400000000000    -1.06366    
O73      O      0.462160000000     0.048250000000     0.460030000000    -2.1003     
O74      O      0.548750000000     0.966320000000     0.461790000000    -2.07685    
O75      O      0.459340000000     0.958920000000     0.458310000000    -0.868389   
O76      O      0.510990000000     0.013680000000     0.496970000000    -2.579      
O77      O      0.395340000000     0.000330000000     0.558280000000    -0.707156   
O78      O      0.608970000000     0.012460000000     0.564090000000    -0.913656   
O79      O      0.450680000000     0.897160000000     0.506620000000    -0.766735   
O80      O      0.443210000000     0.111190000000     0.497780000000    -0.97727    
O81      O      0.554230000000     0.112640000000     0.495350000000    -1.07745    
O82      O      0.560720000000     0.898130000000     0.500450000000    -0.797909   
O83      O      0.500740000000     0.950580000000     0.612190000000    -0.578482   
O84      O      0.503210000000     0.062470000000     0.613800000000    -0.629488   
O85      O      0.501870000000     0.899040000000     0.559730000000    -0.745776   
O86      O      0.502140000000     0.113190000000     0.561420000000    -0.959417   
O87      O      0.397170000000     0.947140000000     0.506000000000    -0.723831   
O88      O      0.611380000000     0.950430000000     0.502830000000    -0.920468   
O89      O      0.607160000000     0.063470000000     0.496730000000    -1.02031    
O90      O      0.392660000000     0.058790000000     0.496410000000    -0.752814   
O91      O      0.446240000000     0.003480000000     0.611270000000    -0.586953   
O92      O      0.556980000000     0.010650000000     0.615170000000    -0.624404   
O93      O      0.544620000000     0.050550000000     0.545100000000    -1.99007    
O94      O      0.465250000000     0.966950000000     0.543140000000    -1.61018    
O95      O      0.545830000000     0.961270000000     0.551080000000    -1.26639    
O96      O      0.455230000000     0.047190000000     0.549190000000    -1.23969    
O97      O      0.449580000000     0.396740000000     0.998750000000    -1.03374    
O98      O      0.445690000000     0.612980000000     0.002900000000    -0.802602   
O99      O      0.396230000000     0.502580000000     0.064740000000    -0.979527   
O100     O      0.396570000000     0.492580000000     0.951210000000    -1.04399    
O101     O      0.447600000000     0.491290000000     0.899580000000    -1.04845    
O102     O      0.448390000000     0.502670000000     0.115800000000    -0.805679   
O103     O      0.394910000000     0.560560000000     0.005400000000    -0.999229   
O104     O      0.397340000000     0.447050000000     0.999460000000    -1.03499    
O105     O      0.457450000000     0.542870000000     0.960740000000    -2.04714    
O106     O      0.459530000000     0.460080000000     0.046760000000    -2.08231    
O107     O      0.456000000000     0.549310000000     0.050050000000    -0.869282   
O108     O      0.494320000000     0.495810000000     0.997090000000    -2.55152    
O109     O      0.556070000000     0.611610000000     0.006470000000    -0.71106    
O110     O      0.560730000000     0.397740000000     0.002260000000    -0.940446   
O111     O      0.504700000000     0.561400000000     0.111310000000    -0.75777    
O112     O      0.495850000000     0.560610000000     0.897150000000    -0.92873    
O113     O      0.493640000000     0.447270000000     0.900330000000    -1.03065    
O114     O      0.499230000000     0.450730000000     0.115100000000    -0.790604   
O115     O      0.609730000000     0.507870000000     0.059270000000    -0.589214   
O116     O      0.611000000000     0.501330000000     0.948440000000    -0.62699    
O117     O      0.557930000000     0.510570000000     0.111320000000    -0.730237   
O118     O      0.559410000000     0.499760000000     0.897480000000    -0.917165   
O119     O      0.503780000000     0.612490000000     0.058280000000    -0.749755   
O120     O      0.500970000000     0.398250000000     0.065140000000    -0.93613    
O121     O      0.493750000000     0.397570000000     0.952900000000    -1.04928    
O122     O      0.494470000000     0.611990000000     0.948370000000    -0.780927   
O123     O      0.608810000000     0.560500000000     0.003970000000    -0.591875   
O124     O      0.612030000000     0.449480000000     0.002110000000    -0.633975   
O125     O      0.542250000000     0.460420000000     0.961950000000    -1.9684     
O126     O      0.540840000000     0.543260000000     0.042160000000    -1.63573    
O127     O      0.548640000000     0.463090000000     0.051280000000    -1.26922    
O128     O      0.546610000000     0.549880000000     0.961350000000    -1.25584    
S1       S      0.491140000000     0.434990000000     0.196300000000     0.00173448 
S2       S      0.519380000000     0.815050000000     0.433820000000     0.00367121 
S3       S      0.469150000000     0.689500000000     0.931210000000     0.0120716  
S4       S      0.498200000000     0.316250000000     0.937390000000     0.00324817 
S5       S      0.569890000000     0.193930000000     0.503120000000     0.000939651
S6       S      0.935860000000     0.693160000000     0.518820000000     0.00466284 
S7       S      0.070930000000     0.316050000000     0.506920000000    -0.00410678 
S8       S      0.435560000000     0.817300000000     0.523920000000     0.00446062 
S9       S      0.932060000000     0.485630000000     0.318040000000    -0.00165544 
S10      S      0.075800000000     0.491960000000     0.319940000000    -0.00160601 
S11      S      0.072460000000     0.501980000000     0.696950000000    -0.00562955 
S12      S      0.689290000000     0.479160000000     0.930490000000     0.00470706 
S13      S      0.819250000000     0.934020000000     0.043030000000    -0.00226852 
S14      S      0.932280000000     0.191240000000     0.041790000000    -0.00335307 
S15      S      0.070270000000     0.814710000000     0.993500000000     0.00886354 
S16      S      0.079000000000     0.188640000000     0.034250000000    -0.00149736 
S17      S      0.814120000000     0.986400000000     0.940930000000     0.0137986  
S18      S      0.068400000000     0.024930000000     0.814110000000    -0.00862529 
S19      S      0.316020000000     0.982570000000     0.426320000000    -0.00825572 
S20      S      0.934260000000     0.997590000000     0.197160000000     0.0132243  
S21      S      0.036350000000     0.188860000000     0.931470000000     0.00257576 
S22      S      0.968770000000     0.934200000000     0.821510000000     0.00952882 
S23      S      0.039200000000     0.929420000000     0.187070000000    -0.00516714 
S24      S      0.035730000000     0.073620000000     0.192020000000    -0.00457254 
Tb1      Tb     0.004500000000     0.003500000000     0.075460000000     6.46731    
Tb2      Tb     0.001540000000     0.935660000000     0.007630000000     4.24999    
Tb3      Tb     0.003190000000     0.074970000000     0.006220000000     6.2144     
Tb4      Tb     0.933340000000     0.007900000000     0.011600000000     4.31143    
Tb5      Tb     0.072130000000     0.002570000000     0.001960000000     6.17442    
Tb6      Tb     0.001000000000     0.007450000000     0.936750000000     3.18111    
Tb7      Tb     0.003220000000     0.505650000000     0.436180000000     6.53154    
Tb8      Tb     0.005770000000     0.573360000000     0.503920000000     4.34377    
Tb9      Tb     0.000090000000     0.434510000000     0.505440000000     6.33635    
Tb10     Tb     0.933330000000     0.504860000000     0.501680000000     4.29729    
Tb11     Tb     0.072930000000     0.503250000000     0.507720000000     6.21123    
Tb12     Tb     0.003100000000     0.501780000000     0.574840000000     3.19301    
Tb13     Tb     0.502500000000     0.003650000000     0.435470000000     6.32141    
Tb14     Tb     0.433130000000     0.004640000000     0.501910000000     4.24175    
Tb15     Tb     0.572410000000     0.006230000000     0.507010000000     6.07248    
Tb16     Tb     0.505470000000     0.936310000000     0.503310000000     4.55601    
Tb17     Tb     0.499710000000     0.074830000000     0.505440000000     6.46364    
Tb18     Tb     0.503180000000     0.007500000000     0.574830000000     3.13826    
Tb19     Tb     0.432940000000     0.504270000000     0.007130000000     6.17119    
Tb20     Tb     0.499560000000     0.573530000000     0.003230000000     4.38316    
Tb21     Tb     0.504370000000     0.434800000000     0.007730000000     6.19491    
Tb22     Tb     0.501150000000     0.504550000000     0.074770000000     4.46937    
Tb23     Tb     0.502900000000     0.504330000000     0.935440000000     6.17525    
Tb24     Tb     0.572100000000     0.503590000000     0.003030000000     3.17974    


