data_structure

_audit_creation_method RASPA-1.0
_audit_creation_date 2023-5-19
_audit_author_name 'Poobodin Mano'

_cell_length_a    32.4164
_cell_length_b    32.3945
_cell_length_c    32.4088
_cell_angle_alpha 90
_cell_angle_beta  90
_cell_angle_gamma 90
_cell_volume      34032.9

_symmetry_cell_setting          triclinic
_symmetry_space_group_name_Hall 'P 1'
_symmetry_space_group_name_H-M  'P 1'
_symmetry_Int_Tables_number     1

_symmetry_equiv_pos_as_xyz 'x,y,z'

loop_
_atom_site_label
_atom_site_type_symbol
_atom_site_fract_x
_atom_site_fract_y
_atom_site_fract_z
_atom_site_charge
C1       C      0.018240000000     0.101080000000     0.100550000000     0.719956   
C2       C      0.007260000000     0.908780000000     0.102420000000     0.676742   
C3       C      0.907930000000     0.010560000000     0.103930000000     0.681915   
C4       C      0.099620000000     0.018090000000     0.100170000000     0.740392   
C5       C      0.998710000000     0.910760000000     0.912120000000     0.580576   
C6       C      0.009970000000     0.101110000000     0.909560000000     0.662781   
C7       C      0.908150000000     0.911490000000     0.006070000000     0.58004    
C8       C      0.098430000000     0.907830000000     0.013260000000     0.689183   
C9       C      0.099910000000     0.099940000000     0.016100000000     0.72206    
C10      C      0.908230000000     0.102110000000     0.013800000000     0.68887    
C11      C      0.908380000000     0.003190000000     0.913550000000     0.578271   
C12      C      0.099400000000     0.009650000000     0.908710000000     0.655348   
C13      C      0.018730000000     0.410720000000     0.411590000000     0.72936    
C14      C      0.008440000000     0.603650000000     0.412860000000     0.682374   
C15      C      0.909670000000     0.503960000000     0.408250000000     0.683125   
C16      C      0.101810000000     0.493620000000     0.415110000000     0.744299   
C17      C      0.998810000000     0.598320000000     0.602860000000     0.570783   
C18      C      0.008920000000     0.407840000000     0.602280000000     0.653961   
C19      C      0.909220000000     0.599310000000     0.507790000000     0.588707   
C20      C      0.099900000000     0.602610000000     0.503790000000     0.697399   
C21      C      0.099100000000     0.410920000000     0.494550000000     0.720127   
C22      C      0.907760000000     0.409210000000     0.495800000000     0.688296   
C23      C      0.907540000000     0.506650000000     0.598770000000     0.583551   
C24      C      0.098610000000     0.496960000000     0.605920000000     0.660336   
C25      C      0.599830000000     0.017430000000     0.413310000000     0.730201   
C26      C      0.408120000000     0.009160000000     0.409410000000     0.673041   
C27      C      0.507520000000     0.907940000000     0.411510000000     0.67879    
C28      C      0.517850000000     0.099840000000     0.411410000000     0.748168   
C29      C      0.408510000000     0.004430000000     0.599550000000     0.569681   
C30      C      0.599210000000     0.011640000000     0.604640000000     0.644451   
C31      C      0.409300000000     0.911540000000     0.508660000000     0.591896   
C32      C      0.408180000000     0.102640000000     0.496240000000     0.701716   
C33      C      0.599530000000     0.099840000000     0.493760000000     0.731051   
C34      C      0.600180000000     0.908880000000     0.501510000000     0.698022   
C35      C      0.498920000000     0.912390000000     0.601640000000     0.570918   
C36      C      0.507630000000     0.103360000000     0.602800000000     0.659895   
C37      C      0.410880000000     0.408690000000     0.996840000000     0.716358   
C38      C      0.407190000000     0.601360000000     0.007740000000     0.684107   
C39      C      0.410150000000     0.499600000000     0.105870000000     0.674929   
C40      C      0.407950000000     0.491310000000     0.914040000000     0.724989   
C41      C      0.596920000000     0.601760000000     0.008710000000     0.573797   
C42      C      0.602430000000     0.411220000000     0.998290000000     0.655646   
C43      C      0.507210000000     0.599090000000     0.102420000000     0.603306   
C44      C      0.493680000000     0.603560000000     0.912110000000     0.693159   
C45      C      0.490690000000     0.411480000000     0.911760000000     0.712708   
C46      C      0.502020000000     0.408720000000     0.103170000000     0.6841     
C47      C      0.600130000000     0.508910000000     0.099260000000     0.575482   
C48      C      0.599260000000     0.502970000000     0.908680000000     0.644742   
C49      C      0.523170000000     0.150500000000     0.309510000000    -0.189345   
C50      C      0.502760000000     0.389660000000     0.174130000000     0.105695   
C51      C      0.504760000000     0.337780000000     0.122590000000     0.11062    
C52      C      0.505730000000     0.359840000000     0.205070000000    -0.115318   
C53      C      0.490300000000     0.289000000000     0.264160000000    -0.0377077  
C54      C      0.494230000000     0.258900000000     0.294770000000    -0.02896    
C55      C      0.512830000000     0.285980000000     0.227210000000    -0.0104658  
C56      C      0.507730000000     0.307150000000     0.152780000000    -0.118746   
C57      C      0.520700000000     0.225000000000     0.289120000000    -0.0256145  
C58      C      0.524330000000     0.201850000000     0.362900000000    -0.140378   
C59      C      0.543440000000     0.222080000000     0.252310000000    -0.0289714  
C60      C      0.523870000000     0.170430000000     0.392350000000     0.120965   
C61      C      0.522220000000     0.119540000000     0.339610000000     0.270774   
C62      C      0.539580000000     0.252250000000     0.221720000000    -0.0376647  
C63      C      0.508610000000     0.318010000000     0.194620000000     0.0627532  
C64      C      0.523300000000     0.192090000000     0.320920000000     0.0950965  
C65      C      0.513710000000     0.649520000000     0.204310000000    -0.181596   
C66      C      0.507560000000     0.888980000000     0.340530000000     0.111488   
C67      C      0.510900000000     0.837090000000     0.392010000000     0.103283   
C68      C      0.508240000000     0.859090000000     0.309550000000    -0.119407   
C69      C      0.533080000000     0.790490000000     0.250860000000    -0.0368511  
C70      C      0.532990000000     0.760170000000     0.220200000000    -0.0298462  
C71      C      0.510300000000     0.784980000000     0.287390000000    -0.0108332  
C72      C      0.511690000000     0.806400000000     0.361780000000    -0.115668   
C73      C      0.510230000000     0.723640000000     0.225470000000    -0.0230953  
C74      C      0.507410000000     0.701110000000     0.151500000000    -0.130699   
C75      C      0.487360000000     0.718190000000     0.261910000000    -0.0297148  
C76      C      0.506800000000     0.669860000000     0.121860000000     0.104017   
C77      C      0.513450000000     0.618790000000     0.174030000000     0.260545   
C78      C      0.487380000000     0.748520000000     0.292510000000    -0.0368586  
C79      C      0.510200000000     0.817210000000     0.319970000000     0.0631029  
C80      C      0.510500000000     0.691070000000     0.193300000000     0.0900467  
C81      C      0.488290000000     0.706000000000     0.862210000000    -0.180369   
C82      C      0.494150000000     0.841490000000     0.621120000000     0.0989778  
C83      C      0.494930000000     0.893360000000     0.672650000000     0.0944968  
C84      C      0.492000000000     0.810730000000     0.651300000000    -0.109017   
C85      C      0.466010000000     0.753480000000     0.721130000000    -0.0377199  
C86      C      0.465340000000     0.723010000000     0.751750000000    -0.0282254  
C87      C      0.490460000000     0.789070000000     0.725810000000    -0.00753165 
C88      C      0.492780000000     0.863400000000     0.703590000000    -0.106315   
C89      C      0.489050000000     0.727440000000     0.787820000000    -0.0232525  
C90      C      0.489270000000     0.653160000000     0.810330000000    -0.135955   
C91      C      0.513500000000     0.763000000000     0.792460000000    -0.0278109  
C92      C      0.490420000000     0.623360000000     0.841490000000     0.121177   
C93      C      0.489650000000     0.675580000000     0.892890000000     0.266101   
C94      C      0.514210000000     0.793390000000     0.761860000000    -0.0372919  
C95      C      0.491560000000     0.821430000000     0.693170000000     0.0580895  
C96      C      0.488610000000     0.695100000000     0.820480000000     0.0937117  
C97      C      0.504780000000     0.205580000000     0.653050000000    -0.182694   
C98      C      0.484500000000     0.340680000000     0.892830000000     0.111183   
C99      C      0.485550000000     0.392210000000     0.840910000000     0.111689   
C100     C      0.484090000000     0.309700000000     0.862910000000    -0.120797   
C101     C      0.513810000000     0.252780000000     0.795160000000    -0.0362855  
C102     C      0.517700000000     0.222550000000     0.764680000000    -0.0301104  
C103     C      0.488440000000     0.287450000000     0.788880000000    -0.0117186  
C104     C      0.485240000000     0.361960000000     0.810180000000    -0.12091    
C105     C      0.496410000000     0.226300000000     0.727100000000    -0.0225401  
C106     C      0.501270000000     0.152400000000     0.704530000000    -0.129212   
C107     C      0.470890000000     0.260850000000     0.720840000000    -0.0297422  
C108     C      0.504480000000     0.122790000000     0.673430000000     0.107073   
C109     C      0.508290000000     0.175300000000     0.622420000000     0.269198   
C110     C      0.466930000000     0.291070000000     0.751380000000    -0.0362345  
C111     C      0.485380000000     0.320090000000     0.821000000000     0.0646483  
C112     C      0.500880000000     0.194350000000     0.694510000000     0.091285   
C113     C      0.701450000000     0.149910000000     0.484980000000    -0.18857    
C114     C      0.837040000000     0.390260000000     0.488800000000     0.106406   
C115     C      0.888540000000     0.338370000000     0.491190000000     0.112229   
C116     C      0.806190000000     0.360280000000     0.485950000000    -0.114233   
C117     C      0.749380000000     0.290090000000     0.459460000000    -0.0374139  
C118     C      0.718840000000     0.259550000000     0.458860000000    -0.0284299  
C119     C      0.784230000000     0.285940000000     0.484990000000    -0.00986987 
C120     C      0.858480000000     0.307630000000     0.488390000000    -0.118724   
C121     C      0.722530000000     0.224210000000     0.483760000000    -0.025038   
C122     C      0.648370000000     0.201520000000     0.483110000000    -0.138535   
C123     C      0.757300000000     0.220230000000     0.509390000000    -0.028332   
C124     C      0.618750000000     0.170280000000     0.485630000000     0.119175   
C125     C      0.671270000000     0.119200000000     0.487840000000     0.269575   
C126     C      0.787750000000     0.250670000000     0.509990000000    -0.0373501  
C127     C      0.816680000000     0.318360000000     0.486120000000     0.0632612  
C128     C      0.690320000000     0.191540000000     0.483480000000     0.0946845  
C129     C      0.701870000000     0.857690000000     0.499190000000    -0.185272   
C130     C      0.838090000000     0.618020000000     0.507070000000     0.0968194  
C131     C      0.889300000000     0.670200000000     0.509400000000     0.0958186  
C132     C      0.806970000000     0.647800000000     0.506280000000    -0.111467   
C133     C      0.747960000000     0.717730000000     0.527670000000    -0.0378585  
C134     C      0.717310000000     0.748050000000     0.525810000000    -0.0282597  
C135     C      0.784480000000     0.721860000000     0.504630000000    -0.00842482 
C136     C      0.858930000000     0.700790000000     0.508440000000    -0.110032   
C137     C      0.722440000000     0.783150000000     0.500800000000    -0.0237995  
C138     C      0.648430000000     0.806420000000     0.499760000000    -0.132945   
C139     C      0.758810000000     0.787010000000     0.477440000000    -0.0280189  
C140     C      0.619000000000     0.837930000000     0.499730000000     0.113416   
C141     C      0.671840000000     0.888700000000     0.498890000000     0.270915   
C142     C      0.789480000000     0.756780000000     0.479400000000    -0.0376415  
C143     C      0.817180000000     0.689770000000     0.506650000000     0.0586073  
C144     C      0.690470000000     0.816090000000     0.499780000000     0.0935525  
C145     C      0.357460000000     0.204290000000     0.487110000000    -0.184738   
C146     C      0.117690000000     0.340260000000     0.486200000000     0.112886   
C147     C      0.169870000000     0.391440000000     0.488720000000     0.111458   
C148     C      0.147380000000     0.309230000000     0.483280000000    -0.117998   
C149     C      0.216290000000     0.250610000000     0.506830000000    -0.0371214  
C150     C      0.246720000000     0.220100000000     0.507290000000    -0.0287095  
C151     C      0.221290000000     0.286500000000     0.482930000000    -0.0102529  
C152     C      0.200410000000     0.361130000000     0.485760000000    -0.117369   
C153     C      0.282910000000     0.224690000000     0.483850000000    -0.0236123  
C154     C      0.306230000000     0.150790000000     0.486630000000    -0.133114   
C155     C      0.287730000000     0.260380000000     0.459590000000    -0.0285607  
C156     C      0.337600000000     0.121430000000     0.489760000000     0.113493   
C157     C      0.388380000000     0.174270000000     0.489970000000     0.270604   
C158     C      0.257290000000     0.290970000000     0.459190000000    -0.0370436  
C159     C      0.189340000000     0.319380000000     0.483550000000     0.0636154  
C160     C      0.315920000000     0.192830000000     0.485600000000     0.0931317  
C161     C      0.150640000000     0.704570000000     0.501020000000    -0.183656   
C162     C      0.390160000000     0.840560000000     0.511790000000     0.0990512  
C163     C      0.338330000000     0.892120000000     0.509120000000     0.098371   
C164     C      0.360220000000     0.809590000000     0.511720000000    -0.111498   
C165     C      0.289160000000     0.752150000000     0.533320000000    -0.037664   
C166     C      0.258850000000     0.721490000000     0.531690000000    -0.0283183  
C167     C      0.286180000000     0.787480000000     0.508300000000    -0.00870986 
C168     C      0.307610000000     0.861910000000     0.508860000000    -0.110685   
C169     C      0.224920000000     0.725460000000     0.504950000000    -0.0241465  
C170     C      0.202000000000     0.651390000000     0.505630000000    -0.136849   
C171     C      0.222140000000     0.760670000000     0.479740000000    -0.0283413  
C172     C      0.170670000000     0.621810000000     0.505050000000     0.121707   
C173     C      0.119820000000     0.674360000000     0.500220000000     0.265892   
C174     C      0.252380000000     0.791330000000     0.481430000000    -0.0378725  
C175     C      0.318380000000     0.820060000000     0.509860000000     0.0592725  
C176     C      0.192170000000     0.693360000000     0.503810000000     0.0942153  
C177     C      0.860950000000     0.505990000000     0.305240000000    -0.185025   
C178     C      0.620250000000     0.509500000000     0.170000000000     0.0978002  
C179     C      0.671310000000     0.511850000000     0.117710000000     0.0942425  
C180     C      0.650640000000     0.509790000000     0.200510000000    -0.110124   
C181     C      0.720810000000     0.533100000000     0.258080000000    -0.038165   
C182     C      0.751270000000     0.531790000000     0.288570000000    -0.0284691  
C183     C      0.725090000000     0.510040000000     0.221580000000    -0.00791293 
C184     C      0.702500000000     0.512070000000     0.147470000000    -0.106621   
C185     C      0.786740000000     0.507360000000     0.283290000000    -0.0240569  
C186     C      0.808530000000     0.504430000000     0.357530000000    -0.132896   
C187     C      0.791060000000     0.484380000000     0.246730000000    -0.0281774  
C188     C      0.839320000000     0.503420000000     0.387610000000     0.111321   
C189     C      0.891290000000     0.504750000000     0.335970000000     0.267746   
C190     C      0.760610000000     0.485720000000     0.216240000000    -0.0380425  
C191     C      0.692370000000     0.510840000000     0.189460000000     0.0579521  
C192     C      0.819120000000     0.505910000000     0.315760000000     0.0923792  
C193     C      0.204410000000     0.485710000000     0.366290000000    -0.189144   
C194     C      0.339450000000     0.496030000000     0.125740000000     0.109457   
C195     C      0.391690000000     0.494650000000     0.176910000000     0.103484   
C196     C      0.308940000000     0.493130000000     0.156000000000    -0.119141   
C197     C      0.252840000000     0.463770000000     0.225390000000    -0.0381185  
C198     C      0.222410000000     0.462250000000     0.255960000000    -0.0289169  
C199     C      0.287870000000     0.488910000000     0.230350000000    -0.0102805  
C200     C      0.361940000000     0.491850000000     0.207960000000    -0.114286   
C201     C      0.226340000000     0.485870000000     0.292140000000    -0.0254636  
C202     C      0.151980000000     0.484980000000     0.314010000000    -0.139455   
C203     C      0.261420000000     0.510940000000     0.297060000000    -0.0284511  
C204     C      0.121980000000     0.486870000000     0.344880000000     0.120309   
C205     C      0.173830000000     0.488010000000     0.396650000000     0.270809   
C206     C      0.291830000000     0.512390000000     0.266580000000    -0.0379764  
C207     C      0.319970000000     0.491110000000     0.197700000000     0.0619832  
C208     C      0.193810000000     0.485060000000     0.324500000000     0.0948618  
C209     C      0.199310000000     0.486350000000     0.658220000000    -0.183604   
C210     C      0.336800000000     0.483240000000     0.897120000000     0.112428   
C211     C      0.386900000000     0.483650000000     0.843880000000     0.11157    
C212     C      0.305100000000     0.480470000000     0.868070000000    -0.121098   
C213     C      0.245600000000     0.504260000000     0.799630000000    -0.0365828  
C214     C      0.214970000000     0.505550000000     0.769270000000    -0.0295257  
C215     C      0.280900000000     0.479530000000     0.794440000000    -0.0114634  
C216     C      0.355930000000     0.480770000000     0.814000000000    -0.120486   
C217     C      0.218860000000     0.482130000000     0.732950000000    -0.0227912  
C218     C      0.145250000000     0.487590000000     0.708770000000    -0.128801   
C219     C      0.253780000000     0.456770000000     0.728150000000    -0.0296179  
C220     C      0.116360000000     0.491310000000     0.676970000000     0.10561    
C221     C      0.169800000000     0.489860000000     0.626890000000     0.26867    
C222     C      0.284440000000     0.455540000000     0.758480000000    -0.0368077  
C223     C      0.314370000000     0.479820000000     0.825880000000     0.0645339  
C224     C      0.187350000000     0.485170000000     0.699640000000     0.0907665  
C225     C      0.804620000000     0.508810000000     0.647670000000    -0.178822   
C226     C      0.617370000000     0.501700000000     0.837370000000     0.10973    
C227     C      0.669840000000     0.502860000000     0.888310000000     0.0969703  
C228     C      0.647010000000     0.501950000000     0.806080000000    -0.117022   
C229     C      0.756870000000     0.479290000000     0.787100000000    -0.0368045  
C230     C      0.787330000000     0.480530000000     0.756640000000    -0.0291641  
C231     C      0.721050000000     0.503460000000     0.783430000000    -0.00983388 
C232     C      0.700230000000     0.502930000000     0.857840000000    -0.111725   
C233     C      0.782750000000     0.506060000000     0.721850000000    -0.0219192  
C234     C      0.856980000000     0.506760000000     0.699990000000    -0.126119   
C235     C      0.746860000000     0.530180000000     0.718170000000    -0.0292093  
C236     C      0.887010000000     0.507070000000     0.669170000000     0.103795   
C237     C      0.835320000000     0.509410000000     0.617310000000     0.261082   
C238     C      0.716340000000     0.528850000000     0.748580000000    -0.0368159  
C239     C      0.689010000000     0.502640000000     0.816150000000     0.0617246  
C240     C      0.815180000000     0.507300000000     0.689460000000     0.0894438  
C241     C      0.646900000000     0.704460000000     0.012360000000    -0.178429   
C242     C      0.888230000000     0.840540000000     0.003250000000     0.09558    
C243     C      0.836930000000     0.892470000000     0.006790000000     0.0933557  
C244     C      0.857930000000     0.809780000000     0.003300000000    -0.111396   
C245     C      0.786560000000     0.752540000000     0.981530000000    -0.0272709  
C246     C      0.755970000000     0.722050000000     0.982570000000    -0.0191379  
C247     C      0.783410000000     0.788030000000     0.006360000000    -0.018709   
C248     C      0.805860000000     0.862480000000     0.007010000000    -0.11089    
C249     C      0.721390000000     0.726170000000     0.008510000000    -0.0317503  
C250     C      0.698670000000     0.651820000000     0.007280000000    -0.126478   
C251     C      0.718290000000     0.761640000000     0.033390000000    -0.0282055  
C252     C      0.667570000000     0.621920000000     0.007600000000     0.100332   
C253     C      0.616250000000     0.673880000000     0.012860000000     0.256665   
C254     C      0.748850000000     0.792160000000     0.032310000000    -0.0364937  
C255     C      0.816100000000     0.820470000000     0.005430000000     0.0590486  
C256     C      0.688620000000     0.693760000000     0.009430000000     0.0886267  
C257     C      0.704210000000     0.360830000000     0.995570000000    -0.1859     
C258     C      0.837600000000     0.121650000000     0.017030000000     0.107005   
C259     C      0.889580000000     0.173080000000     0.013160000000     0.113692   
C260     C      0.806960000000     0.151780000000     0.015810000000    -0.117636   
C261     C      0.750430000000     0.224180000000     0.034100000000    -0.0383346  
C262     C      0.720100000000     0.254490000000     0.030550000000    -0.0235782  
C263     C      0.785840000000     0.225650000000     0.009180000000    -0.0195879  
C264     C      0.859730000000     0.203970000000     0.011800000000    -0.122431   
C265     C      0.724610000000     0.286810000000     0.001990000000    -0.0460805  
C266     C      0.650990000000     0.309370000000     0.999730000000    -0.128646   
C267     C      0.759940000000     0.288170000000     0.976960000000    -0.0147412  
C268     C      0.621510000000     0.340580000000     0.998420000000     0.119602   
C269     C      0.674050000000     0.391580000000     0.994110000000     0.264171   
C270     C      0.790270000000     0.257880000000     0.980520000000    -0.0288786  
C271     C      0.817910000000     0.193410000000     0.012610000000     0.0663124  
C272     C      0.692840000000     0.319390000000     0.998860000000     0.10605    
C273     C      0.354510000000     0.702010000000     0.008990000000    -0.186526   
C274     C      0.168870000000     0.887520000000     0.014540000000     0.115385   
C275     C      0.116190000000     0.836710000000     0.016830000000     0.106842   
C276     C      0.199040000000     0.856930000000     0.014390000000    -0.121766   
C277     C      0.252650000000     0.786390000000     0.985830000000    -0.0262484  
C278     C      0.282870000000     0.755890000000     0.984180000000    -0.0180139  
C279     C      0.219090000000     0.782520000000     0.012960000000    -0.0213288  
C280     C      0.145570000000     0.805340000000     0.016720000000    -0.119203   
C281     C      0.280120000000     0.720900000000     0.009610000000    -0.0354267  
C282     C      0.304160000000     0.647570000000     0.009140000000    -0.141061   
C283     C      0.246230000000     0.716630000000     0.036260000000    -0.0280034  
C284     C      0.336090000000     0.618780000000     0.008660000000     0.119885   
C285     C      0.385950000000     0.672630000000     0.008920000000     0.265348   
C286     C      0.215970000000     0.747210000000     0.037940000000    -0.0361355  
C287     C      0.187500000000     0.815320000000     0.014990000000     0.0672513  
C288     C      0.313280000000     0.689670000000     0.009120000000     0.0972822  
C289     C      0.152140000000     0.201470000000     0.016460000000    -0.190723   
C290     C      0.392490000000     0.337350000000     0.993180000000     0.109663   
C291     C      0.340110000000     0.388280000000     0.995040000000     0.110256   
C292     C      0.362820000000     0.305960000000     0.994360000000    -0.115409   
C293     C      0.295350000000     0.247790000000     0.024720000000    -0.0570293  
C294     C      0.264740000000     0.217540000000     0.028970000000    -0.0189303  
C295     C      0.288710000000     0.282870000000     0.999910000000     0.00727576 
C296     C      0.309680000000     0.357670000000     0.996170000000    -0.116204   
C297     C      0.226630000000     0.221580000000     0.008590000000    -0.0423829  
C298     C      0.202840000000     0.147620000000     0.014300000000    -0.140244   
C299     C      0.220220000000     0.256400000000     0.983420000000    -0.00957219 
C300     C      0.171100000000     0.118390000000     0.016570000000     0.116994   
C301     C      0.120870000000     0.171640000000     0.018400000000     0.271358   
C302     C      0.250790000000     0.286610000000     0.979150000000    -0.0479474  
C303     C      0.320770000000     0.315840000000     0.996490000000     0.0584005  
C304     C      0.193570000000     0.189800000000     0.013420000000     0.0973894  
C305     C      0.806020000000     0.000430000000     0.863610000000    -0.204532   
C306     C      0.670060000000     0.013710000000     0.623990000000     0.11046    
C307     C      0.618310000000     0.012260000000     0.675660000000     0.0977281  
C308     C      0.700890000000     0.013250000000     0.654060000000    -0.117716   
C309     C      0.758250000000     0.034430000000     0.725310000000    -0.0368552  
C310     C      0.788860000000     0.032320000000     0.755610000000    -0.0265094  
C311     C      0.722660000000     0.009820000000     0.728190000000    -0.0172378  
C312     C      0.648380000000     0.011580000000     0.706520000000    -0.113049   
C313     C      0.784610000000     0.005450000000     0.789440000000    -0.0344304  
C314     C      0.858750000000     0.005300000000     0.811850000000    -0.133064   
C315     C      0.749060000000     0.980720000000     0.792190000000    -0.0193729  
C316     C      0.888540000000     0.004480000000     0.842930000000     0.103681   
C317     C      0.836460000000     0.999340000000     0.894200000000     0.281468   
C318     C      0.718420000000     0.982940000000     0.761960000000    -0.029425   
C319     C      0.690250000000     0.011780000000     0.695880000000     0.0630013  
C320     C      0.816880000000     0.003620000000     0.821990000000     0.100055   
C321     C      0.200710000000     0.013580000000     0.856900000000    -0.184917   
C322     C      0.337200000000     0.001960000000     0.617580000000     0.0985375  
C323     C      0.387930000000     0.005020000000     0.670160000000     0.0942248  
C324     C      0.305790000000     0.002650000000     0.647090000000    -0.111284   
C325     C      0.247310000000     0.982230000000     0.717900000000    -0.02937    
C326     C      0.216710000000     0.983880000000     0.748280000000    -0.0202737  
C327     C      0.282720000000     0.007110000000     0.720920000000    -0.0162844  
C328     C      0.357310000000     0.005860000000     0.700430000000    -0.108946   
C329     C      0.220830000000     0.010470000000     0.782330000000    -0.0311701  
C330     C      0.147040000000     0.009430000000     0.806020000000    -0.129959   
C331     C      0.256000000000     0.035730000000     0.785020000000    -0.0275515  
C332     C      0.117820000000     0.009510000000     0.837680000000     0.107183   
C333     C      0.170850000000     0.013820000000     0.888070000000     0.269305   
C334     C      0.286580000000     0.034040000000     0.754710000000    -0.0367012  
C335     C      0.315640000000     0.005030000000     0.689080000000     0.0599666  
C336     C      0.189080000000     0.011260000000     0.815430000000     0.0933299  
C337     C      0.151000000000     0.025610000000     0.201500000000    -0.191588   
C338     C      0.390300000000     0.011600000000     0.338040000000     0.10839    
C339     C      0.337720000000     0.013980000000     0.388820000000     0.101683   
C340     C      0.360860000000     0.014140000000     0.306630000000    -0.120644   
C341     C      0.292640000000     0.043050000000     0.248390000000    -0.0368939  
C342     C      0.262160000000     0.045090000000     0.217860000000    -0.027838   
C343     C      0.286960000000     0.018350000000     0.283650000000    -0.0186821  
C344     C      0.307530000000     0.016460000000     0.358210000000    -0.117187   
C345     C      0.225370000000     0.022460000000     0.221960000000    -0.0335779  
C346     C      0.202090000000     0.024380000000     0.147940000000    -0.140186   
C347     C      0.220000000000     0.997420000000     0.257000000000    -0.0203191  
C348     C      0.170490000000     0.023470000000     0.118610000000     0.119697   
C349     C      0.119920000000     0.024270000000     0.171630000000     0.271387   
C350     C      0.250370000000     0.995430000000     0.287450000000    -0.0295759  
C351     C      0.318880000000     0.016450000000     0.316520000000     0.0634341  
C352     C      0.192520000000     0.024610000000     0.190000000000     0.096641   
C353     C      0.858390000000     0.017220000000     0.206340000000    -0.186769   
C354     C      0.618780000000     0.023980000000     0.342620000000     0.113565   
C355     C      0.670690000000     0.022840000000     0.394100000000     0.111662   
C356     C      0.648640000000     0.025750000000     0.311690000000    -0.120951   
C357     C      0.717330000000     0.999830000000     0.254080000000    -0.0289034  
C358     C      0.747690000000     0.998280000000     0.223560000000    -0.0208804  
C359     C      0.722640000000     0.024600000000     0.289320000000    -0.0189085  
C360     C      0.701400000000     0.024590000000     0.363890000000    -0.119384   
C361     C      0.784130000000     0.021430000000     0.227530000000    -0.0320297  
C362     C      0.806520000000     0.018230000000     0.153480000000    -0.134688   
C363     C      0.789390000000     0.046370000000     0.262670000000    -0.027856   
C364     C      0.837520000000     0.015420000000     0.123740000000     0.110649   
C365     C      0.888950000000     0.014620000000     0.175940000000     0.268198   
C366     C      0.758990000000     0.047920000000     0.293240000000    -0.0360428  
C367     C      0.690540000000     0.025430000000     0.322050000000     0.0655148  
C368     C      0.816740000000     0.019080000000     0.195370000000     0.0939745  
C369     C      0.015600000000     0.202130000000     0.857880000000    -0.190417   
C370     C      0.014680000000     0.336820000000     0.619610000000     0.112898   
C371     C      0.012670000000     0.387350000000     0.672600000000     0.100232   
C372     C      0.017640000000     0.305460000000     0.648800000000    -0.121821   
C373     C      0.995510000000     0.246660000000     0.717710000000    -0.0287248  
C374     C      0.995810000000     0.216270000000     0.748110000000    -0.0203595  
C375     C      0.019670000000     0.282360000000     0.722210000000    -0.019241   
C376     C      0.015600000000     0.356740000000     0.702610000000    -0.115424   
C377     C      0.020220000000     0.221080000000     0.783560000000    -0.0336038  
C378     C      0.019220000000     0.147890000000     0.807380000000    -0.13481    
C379     C      0.044900000000     0.256450000000     0.787760000000    -0.0276147  
C380     C      0.016330000000     0.119000000000     0.838980000000     0.109381   
C381     C      0.012380000000     0.172560000000     0.889020000000     0.272337   
C382     C      0.044640000000     0.286840000000     0.757330000000    -0.0363557  
C383     C      0.017930000000     0.315280000000     0.690790000000     0.0653787  
C384     C      0.018760000000     0.189920000000     0.816700000000     0.0966209  
C385     C      0.992790000000     0.858590000000     0.810600000000    -0.172507   
C386     C      0.995970000000     0.617080000000     0.674150000000     0.0935935  
C387     C      0.994630000000     0.669230000000     0.623000000000     0.0978732  
C388     C      0.994510000000     0.646910000000     0.705390000000    -0.103313   
C389     C      0.016120000000     0.716920000000     0.764460000000    -0.0454172  
C390     C      0.015980000000     0.747600000000     0.794970000000    -0.0372891  
C391     C      0.992370000000     0.721320000000     0.728350000000     0.00159036 
C392     C      0.993070000000     0.699850000000     0.653480000000    -0.103953   
C393     C      0.992100000000     0.783570000000     0.790250000000    -0.0120385  
C394     C      0.994240000000     0.807750000000     0.864330000000    -0.122995   
C395     C      0.968010000000     0.787740000000     0.754340000000    -0.0296033  
C396     C      0.995660000000     0.839540000000     0.893600000000     0.106347   
C397     C      0.994040000000     0.889900000000     0.840490000000     0.256725   
C398     C      0.968160000000     0.757090000000     0.723840000000    -0.0379705  
C399     C      0.993210000000     0.688990000000     0.695380000000     0.0553844  
C400     C      0.992940000000     0.816970000000     0.822150000000     0.0860478  
C401     C      0.006680000000     0.705220000000     0.361890000000    -0.184421   
C402     C      0.012040000000     0.838190000000     0.121810000000     0.104712   
C403     C      0.007860000000     0.890020000000     0.173370000000     0.111862   
C404     C      0.013630000000     0.807550000000     0.151900000000    -0.118875   
C405     C      0.990110000000     0.749470000000     0.220810000000    -0.0284983  
C406     C      0.990290000000     0.719280000000     0.251440000000    -0.0208055  
C407     C      0.012730000000     0.786120000000     0.225960000000    -0.0194813  
C408     C      0.009230000000     0.860130000000     0.204260000000    -0.120766   
C409     C      0.012920000000     0.725240000000     0.287880000000    -0.0332994  
C410     C      0.016080000000     0.651900000000     0.311170000000    -0.140227   
C411     C      0.035680000000     0.761760000000     0.293010000000    -0.027987   
C412     C      0.014660000000     0.622570000000     0.342510000000     0.121361   
C413     C      0.004820000000     0.675170000000     0.392720000000     0.25376    
C414     C      0.035660000000     0.791890000000     0.262300000000    -0.03597    
C415     C      0.012020000000     0.818350000000     0.193650000000     0.0657361  
C416     C      0.012180000000     0.693710000000     0.320750000000     0.0951608  
C417     C      0.026850000000     0.309100000000     0.360120000000    -0.18727    
C418     C      0.026160000000     0.172030000000     0.119300000000     0.108918   
C419     C      0.024170000000     0.120810000000     0.171360000000     0.109315   
C420     C      0.028850000000     0.203160000000     0.149180000000    -0.11499    
C421     C      0.053130000000     0.261760000000     0.219250000000    -0.0384443  
C422     C      0.052980000000     0.292510000000     0.249760000000    -0.0296789  
C423     C      0.028930000000     0.225910000000     0.223650000000    -0.00760841 
C424     C      0.026770000000     0.151150000000     0.202010000000    -0.116089   
C425     C      0.028650000000     0.288200000000     0.285470000000    -0.0223082  
C426     C      0.029060000000     0.362640000000     0.309120000000    -0.13619    
C427     C      0.004220000000     0.252510000000     0.289600000000    -0.0366094  
C428     C      0.026610000000     0.392090000000     0.340740000000     0.114396   
C429     C      0.024040000000     0.339050000000     0.391170000000     0.268213   
C430     C      0.004400000000     0.221850000000     0.259210000000    -0.0453386  
C431     C      0.028610000000     0.193050000000     0.191230000000     0.0595129  
C432     C      0.028550000000     0.320450000000     0.318520000000     0.0902171  
H1       H      0.974620000000     0.976570000000     0.038040000000    -1.24288    
H2       H      0.029170000000     0.030110000000     0.030880000000    -1.06978    
H3       H      0.966930000000     0.075570000000     0.969810000000    -0.511193   
H4       H      0.073050000000     0.967370000000     0.969220000000    -0.512822   
H5       H      0.975830000000     0.534620000000     0.475700000000    -1.23953    
H6       H      0.029670000000     0.480850000000     0.482700000000    -1.07865    
H7       H      0.966030000000     0.434520000000     0.542110000000    -0.511938   
H8       H      0.073250000000     0.542210000000     0.546390000000    -0.541671   
H9       H      0.475010000000     0.976370000000     0.475580000000    -1.25873    
H10      H      0.529110000000     0.030260000000     0.482190000000    -1.08756    
H11      H      0.573340000000     0.968480000000     0.544750000000    -0.51444    
H12      H      0.466360000000     0.076430000000     0.542210000000    -0.540339   
H13      H      0.473280000000     0.533900000000     0.037080000000    -1.26221    
H14      H      0.479420000000     0.480620000000     0.982330000000    -1.04124    
H15      H      0.543010000000     0.435910000000     0.042670000000    -0.49602    
H16      H      0.538840000000     0.544260000000     0.936470000000    -0.531645   
H17      H      0.504470000000     0.327930000000     0.090620000000     0.00790557 
H18      H      0.524320000000     0.179880000000     0.424430000000     0.0142735  
H19      H      0.557940000000     0.249360000000     0.193950000000     0.036115   
H20      H      0.475760000000     0.261670000000     0.322480000000     0.0336205  
H21      H      0.525260000000     0.233690000000     0.373060000000     0.0614141  
H22      H      0.468980000000     0.314250000000     0.269160000000     0.0366255  
H23      H      0.522230000000     0.141760000000     0.277240000000     0.0816956  
H24      H      0.509130000000     0.275110000000     0.143320000000     0.0545909  
H25      H      0.506660000000     0.369720000000     0.236980000000     0.0566576  
H26      H      0.564470000000     0.196600000000     0.247250000000     0.0348557  
H27      H      0.501080000000     0.421650000000     0.183810000000     0.0191483  
H28      H      0.491450000000     0.072810000000     0.322590000000     0.140914   
H29      H      0.512170000000     0.827250000000     0.423960000000     0.0166359  
H30      H      0.503580000000     0.679450000000     0.089980000000     0.0164932  
H31      H      0.468910000000     0.743630000000     0.319930000000     0.0364719  
H32      H      0.551330000000     0.765010000000     0.192690000000     0.0343095  
H33      H      0.504570000000     0.732940000000     0.141670000000     0.0597161  
H34      H      0.551500000000     0.817990000000     0.246210000000     0.0366158  
H35      H      0.517060000000     0.640690000000     0.236390000000     0.0820887  
H36      H      0.513840000000     0.774400000000     0.371220000000     0.0558555  
H37      H      0.506510000000     0.868820000000     0.277620000000     0.0567907  
H38      H      0.468980000000     0.690660000000     0.266580000000     0.0360321  
H39      H      0.505760000000     0.920980000000     0.330900000000     0.0110283  
H40      H      0.547630000000     0.573390000000     0.187340000000     0.150206   
H41      H      0.495870000000     0.925380000000     0.682350000000     0.0225541  
H42      H      0.491300000000     0.591360000000     0.831730000000     0.00795811 
H43      H      0.533990000000     0.819980000000     0.766180000000     0.0387327  
H44      H      0.445780000000     0.696260000000     0.747430000000     0.0349069  
H45      H      0.489820000000     0.643280000000     0.778410000000     0.0604784  
H46      H      0.446900000000     0.749390000000     0.694030000000     0.0373961  
H47      H      0.486970000000     0.738160000000     0.871310000000     0.0868553  
H48      H      0.491800000000     0.873190000000     0.735530000000     0.0564657  
H49      H      0.491530000000     0.778690000000     0.641760000000     0.054554   
H50      H      0.532720000000     0.767060000000     0.819490000000     0.0368868  
H51      H      0.494740000000     0.831580000000     0.589180000000     0.0192928  
H52      H      0.518840000000     0.692710000000     0.940530000000     0.162389   
H53      H      0.486410000000     0.424170000000     0.831050000000     0.0131961  
H54      H      0.503920000000     0.090740000000     0.683010000000     0.016372   
H55      H      0.446710000000     0.317080000000     0.745760000000     0.0361713  
H56      H      0.538060000000     0.196630000000     0.770230000000     0.0345678  
H57      H      0.498170000000     0.142320000000     0.736250000000     0.0598695  
H58      H      0.531420000000     0.249390000000     0.823360000000     0.036547   
H59      H      0.505590000000     0.237830000000     0.644230000000     0.0839342  
H60      H      0.486340000000     0.371460000000     0.778160000000     0.0561436  
H61      H      0.483140000000     0.277740000000     0.872680000000     0.0565277  
H62      H      0.453570000000     0.264310000000     0.692470000000     0.037655   
H63      H      0.484140000000     0.331030000000     0.924850000000     0.0148327  
H64      H      0.542680000000     0.190990000000     0.577870000000     0.142413   
H65      H      0.920440000000     0.328520000000     0.493060000000     0.00996182 
H66      H      0.586710000000     0.179860000000     0.485810000000     0.0151385  
H67      H      0.813750000000     0.246880000000     0.530640000000     0.0373849  
H68      H      0.692640000000     0.263340000000     0.438470000000     0.0344703  
H69      H      0.638350000000     0.233400000000     0.482060000000     0.0613481  
H70      H      0.745950000000     0.316690000000     0.439500000000     0.0370955  
H71      H      0.733650000000     0.140920000000     0.484330000000     0.0829163  
H72      H      0.868060000000     0.275600000000     0.487910000000     0.0565468  
H73      H      0.774240000000     0.369980000000     0.484610000000     0.0577384  
H74      H      0.760710000000     0.193810000000     0.529600000000     0.0341258  
H75      H      0.827360000000     0.422290000000     0.489000000000     0.0223266  
H76      H      0.688790000000     0.073430000000     0.519730000000     0.143508   
H77      H      0.921160000000     0.680260000000     0.510690000000     0.0225625  
H78      H      0.586880000000     0.828610000000     0.499970000000     0.0144363  
H79      H      0.816920000000     0.760510000000     0.460690000000     0.0380877  
H80      H      0.689970000000     0.744380000000     0.544670000000     0.0347765  
H81      H      0.638160000000     0.774600000000     0.499550000000     0.0602293  
H82      H      0.743390000000     0.691410000000     0.547760000000     0.0370642  
H83      H      0.734120000000     0.866480000000     0.499570000000     0.0850566  
H84      H      0.868160000000     0.732910000000     0.509370000000     0.0568508  
H85      H      0.775110000000     0.637900000000     0.504490000000     0.054825   
H86      H      0.763460000000     0.813270000000     0.457300000000     0.0355166  
H87      H      0.828590000000     0.585960000000     0.506090000000     0.0181997  
H88      H      0.687570000000     0.935990000000     0.468340000000     0.146809   
H89      H      0.179930000000     0.423230000000     0.491260000000     0.0291015  
H90      H      0.328200000000     0.089320000000     0.490640000000     0.0142972  
H91      H      0.261810000000     0.317990000000     0.440020000000     0.0378826  
H92      H      0.242310000000     0.193350000000     0.526850000000     0.0346655  
H93      H      0.274500000000     0.140460000000     0.484880000000     0.0599666  
H94      H      0.189230000000     0.246520000000     0.526000000000     0.0365755  
H95      H      0.366210000000     0.236580000000     0.486780000000     0.0842199  
H96      H      0.232520000000     0.370350000000     0.486410000000     0.0587797  
H97      H      0.137420000000     0.277390000000     0.480940000000     0.0582867  
H98      H      0.314940000000     0.264600000000     0.440660000000     0.0345041  
H99      H      0.085660000000     0.330710000000     0.486440000000     0.0288699  
H100     H      0.437560000000     0.188910000000     0.462030000000     0.143102   
H101     H      0.328470000000     0.924080000000     0.508130000000     0.0196709  
H102     H      0.180120000000     0.589760000000     0.506730000000     0.0122844  
H103     H      0.249580000000     0.817820000000     0.461220000000     0.0371154  
H104     H      0.261620000000     0.695050000000     0.551950000000     0.0356929  
H105     H      0.233810000000     0.641290000000     0.507190000000     0.0619111  
H106     H      0.314590000000     0.748500000000     0.554690000000     0.0374929  
H107     H      0.141760000000     0.736800000000     0.499920000000     0.0844919  
H108     H      0.275560000000     0.871360000000     0.508070000000     0.0559107  
H109     H      0.369930000000     0.777600000000     0.512200000000     0.0548182  
H110     H      0.196790000000     0.764360000000     0.458280000000     0.0346193  
H111     H      0.422140000000     0.830850000000     0.512820000000     0.0184626  
H112     H      0.074240000000     0.689160000000     0.466960000000     0.164017   
H113     H      0.680690000000     0.512820000000     0.085620000000     0.0246231  
H114     H      0.829190000000     0.502400000000     0.419470000000     0.0171734  
H115     H      0.764560000000     0.467070000000     0.188780000000     0.0383069  
H116     H      0.747290000000     0.550380000000     0.316050000000     0.0345156  
H117     H      0.776520000000     0.503650000000     0.367090000000     0.0605137  
H118     H      0.694100000000     0.552600000000     0.262890000000     0.0370812  
H119     H      0.870370000000     0.507500000000     0.273190000000     0.0831477  
H120     H      0.734380000000     0.513490000000     0.137550000000     0.0558607  
H121     H      0.641400000000     0.508280000000     0.232600000000     0.0551509  
H122     H      0.817690000000     0.464760000000     0.241950000000     0.0347558  
H123     H      0.588450000000     0.507950000000     0.180160000000     0.0195248  
H124     H      0.939180000000     0.475300000000     0.320060000000     0.143506   
H125     H      0.423770000000     0.495000000000     0.186350000000     0.0224127  
H126     H      0.090070000000     0.487210000000     0.334880000000     0.010243   
H127     H      0.318070000000     0.532600000000     0.271040000000     0.0371649  
H128     H      0.196040000000     0.442240000000     0.251430000000     0.0331188  
H129     H      0.142310000000     0.484650000000     0.282020000000     0.0597144  
H130     H      0.249140000000     0.444900000000     0.198050000000     0.0357503  
H131     H      0.236490000000     0.484820000000     0.375660000000     0.0830806  
H132     H      0.371860000000     0.489860000000     0.239810000000     0.0569346  
H133     H      0.276830000000     0.493170000000     0.146720000000     0.0543645  
H134     H      0.265050000000     0.530160000000     0.324160000000     0.0340339  
H135     H      0.329350000000     0.497720000000     0.093900000000     0.00704617 
H136     H      0.190660000000     0.519090000000     0.443210000000     0.143633   
H137     H      0.418540000000     0.485030000000     0.833140000000     0.0135583  
H138     H      0.084180000000     0.493100000000     0.685910000000     0.0156628  
H139     H      0.310900000000     0.435660000000     0.753810000000     0.0360757  
H140     H      0.188810000000     0.525850000000     0.773750000000     0.0348919  
H141     H      0.134500000000     0.486290000000     0.740390000000     0.0588782  
H142     H      0.242160000000     0.523590000000     0.826680000000     0.0369833  
H143     H      0.231660000000     0.485140000000     0.649860000000     0.0830915  
H144     H      0.364550000000     0.480550000000     0.781710000000     0.056227   
H145     H      0.273450000000     0.478970000000     0.878690000000     0.0563345  
H146     H      0.257430000000     0.437740000000     0.700910000000     0.0346946  
H147     H      0.327980000000     0.484060000000     0.929380000000     0.0128963  
H148     H      0.184590000000     0.461360000000     0.578040000000     0.145626   
H149     H      0.680090000000     0.503640000000     0.920130000000     0.0207095  
H150     H      0.918880000000     0.506440000000     0.679300000000     0.0198069  
H151     H      0.689370000000     0.548300000000     0.745170000000     0.0371673  
H152     H      0.814240000000     0.461020000000     0.760100000000     0.0359623  
H153     H      0.866610000000     0.506350000000     0.731990000000     0.0603176  
H154     H      0.761130000000     0.458980000000     0.813300000000     0.0372429  
H155     H      0.772540000000     0.508930000000     0.638270000000     0.0822315  
H156     H      0.732350000000     0.503990000000     0.866980000000     0.0567443  
H157     H      0.637030000000     0.501220000000     0.774190000000     0.0559785  
H158     H      0.742630000000     0.550640000000     0.692080000000     0.0348366  
H159     H      0.585230000000     0.501120000000     0.828130000000     0.0106836  
H160     H      0.820580000000     0.540760000000     0.570310000000     0.150277   
H161     H      0.827360000000     0.924490000000     0.008300000000     0.01866    
H162     H      0.677390000000     0.589990000000     0.005690000000     0.0192376  
H163     H      0.745720000000     0.818700000000     0.052370000000     0.0367126  
H164     H      0.759110000000     0.695520000000     0.962470000000     0.0362695  
H165     H      0.730550000000     0.641930000000     0.005690000000     0.0575657  
H166     H      0.812410000000     0.748590000000     0.960740000000     0.038208   
H167     H      0.637710000000     0.736580000000     0.013730000000     0.0809234  
H168     H      0.773940000000     0.872290000000     0.008100000000     0.0542622  
H169     H      0.867400000000     0.777730000000     0.002450000000     0.0532504  
H170     H      0.692500000000     0.765600000000     0.054260000000     0.0341973  
H171     H      0.920130000000     0.830580000000     0.001840000000     0.0184323  
H172     H      0.570280000000     0.687920000000     0.046010000000     0.151962   
H173     H      0.921610000000     0.182640000000     0.012020000000     0.0112138  
H174     H      0.589480000000     0.331040000000     0.999730000000     0.0115055  
H175     H      0.816920000000     0.259370000000     0.960410000000     0.0386773  
H176     H      0.693470000000     0.253040000000     0.050680000000     0.0314404  
H177     H      0.640950000000     0.277520000000     0.001480000000     0.0516002  
H178     H      0.746470000000     0.199930000000     0.056770000000     0.0364741  
H179     H      0.736450000000     0.369650000000     0.994860000000     0.086953   
H180     H      0.869410000000     0.235930000000     0.010080000000     0.0562436  
H181     H      0.774890000000     0.142370000000     0.016290000000     0.0565722  
H182     H      0.763930000000     0.312400000000     0.954280000000     0.0325232  
H183     H      0.827720000000     0.089730000000     0.018890000000     0.0199298  
H184     H      0.688750000000     0.437000000000     0.960500000000     0.149313   
H185     H      0.084030000000     0.827560000000     0.017670000000     0.0145147  
H186     H      0.327330000000     0.586480000000     0.008320000000     0.00413331 
H187     H      0.190600000000     0.743630000000     0.059400000000     0.0354368  
H188     H      0.308340000000     0.759600000000     0.962860000000     0.0393231  
H189     H      0.272500000000     0.636860000000     0.008960000000     0.0592785  
H190     H      0.255390000000     0.812870000000     0.965610000000     0.0401703  
H191     H      0.362580000000     0.734480000000     0.009740000000     0.0840828  
H192     H      0.135420000000     0.773490000000     0.016980000000     0.0550485  
H193     H      0.231240000000     0.865880000000     0.013810000000     0.0578485  
H194     H      0.243650000000     0.690150000000     0.056510000000     0.0326179  
H195     H      0.179200000000     0.919340000000     0.013700000000     0.0149134  
H196     H      0.433070000000     0.689540000000     0.039090000000     0.145646   
H197     H      0.329890000000     0.420130000000     0.995630000000     0.0134429  
H198     H      0.180180000000     0.086190000000     0.016380000000     0.0113441  
H199     H      0.244800000000     0.312760000000     0.959230000000     0.0394605  
H200     H      0.270630000000     0.191400000000     0.048960000000     0.0300469  
H201     H      0.234440000000     0.137010000000     0.012040000000     0.0588685  
H202     H      0.323910000000     0.244120000000     0.041660000000     0.0378748  
H203     H      0.143700000000     0.233830000000     0.017110000000     0.081402   
H204     H      0.277630000000     0.366930000000     0.998020000000     0.0560854  
H205     H      0.372900000000     0.274090000000     0.993650000000     0.0568756  
H206     H      0.191630000000     0.260170000000     0.966550000000     0.0325616  
H207     H      0.424600000000     0.328060000000     0.992050000000     0.0150656  
H208     H      0.071780000000     0.189260000000     0.992060000000     0.166694   
H209     H      0.586310000000     0.011880000000     0.685370000000     0.0173062  
H210     H      0.920470000000     0.006300000000     0.833170000000     0.0176712  
H211     H      0.691690000000     0.963070000000     0.764700000000     0.0387912  
H212     H      0.815520000000     0.052270000000     0.752890000000     0.0344976  
H213     H      0.868630000000     0.007060000000     0.779970000000     0.0604531  
H214     H      0.762180000000     0.055820000000     0.699920000000     0.0365485  
H215     H      0.773880000000     0.999340000000     0.872740000000     0.0949992  
H216     H      0.638820000000     0.011090000000     0.738540000000     0.0546317  
H217     H      0.732910000000     0.013130000000     0.644470000000     0.0569979  
H218     H      0.745120000000     0.959200000000     0.817450000000     0.0351028  
H219     H      0.679850000000     0.014380000000     0.592020000000     0.0144666  
H220     H      0.822220000000     0.965660000000     0.939730000000     0.153997   
H221     H      0.419720000000     0.005910000000     0.680530000000     0.0195581  
H222     H      0.085680000000     0.007820000000     0.828560000000     0.0208624  
H223     H      0.313090000000     0.054190000000     0.757540000000     0.0374879  
H224     H      0.190270000000     0.963620000000     0.745560000000     0.0368076  
H225     H      0.136620000000     0.008220000000     0.774290000000     0.0596399  
H226     H      0.243620000000     0.960840000000     0.692480000000     0.0385081  
H227     H      0.233010000000     0.014700000000     0.865450000000     0.0835163  
H228     H      0.366320000000     0.006960000000     0.732590000000     0.0549263  
H229     H      0.273960000000     0.002210000000     0.636930000000     0.0536424  
H230     H      0.259790000000     0.057100000000     0.810430000000     0.0346366  
H231     H      0.328020000000     0.000560000000     0.585450000000     0.0180558  
H232     H      0.185670000000     0.046580000000     0.934150000000     0.145942   
H233     H      0.327370000000     0.014230000000     0.420630000000     0.0155912  
H234     H      0.179720000000     0.022590000000     0.086470000000     0.0118894  
H235     H      0.245370000000     0.975470000000     0.313800000000     0.0368702  
H236     H      0.267090000000     0.064940000000     0.191440000000     0.0329285  
H237     H      0.233860000000     0.023630000000     0.137600000000     0.0597727  
H238     H      0.320320000000     0.061410000000     0.244750000000     0.0354378  
H239     H      0.142370000000     0.027030000000     0.233780000000     0.0817443  
H240     H      0.275460000000     0.018800000000     0.367280000000     0.0542944  
H241     H      0.370980000000     0.013610000000     0.274780000000     0.0544698  
H242     H      0.192460000000     0.978870000000     0.260710000000     0.0344204  
H243     H      0.422400000000     0.009680000000     0.328880000000     0.00650854 
H244     H      0.072510000000     0.995500000000     0.190150000000     0.150307   
H245     H      0.680570000000     0.021240000000     0.426010000000     0.0273439  
H246     H      0.827700000000     0.014890000000     0.091770000000     0.0154737  
H247     H      0.763780000000     0.067710000000     0.319750000000     0.0373533  
H248     H      0.742960000000     0.978240000000     0.197230000000     0.0348109  
H249     H      0.774670000000     0.020130000000     0.143560000000     0.0586148  
H250     H      0.690020000000     0.980910000000     0.250450000000     0.0369609  
H251     H      0.867470000000     0.017270000000     0.238520000000     0.0832515  
H252     H      0.733450000000     0.024010000000     0.373300000000     0.0582919  
H253     H      0.638840000000     0.027190000000     0.279760000000     0.0568534  
H254     H      0.816840000000     0.065060000000     0.266370000000     0.03448    
H255     H      0.586790000000     0.023720000000     0.332930000000     0.0251947  
H256     H      0.938380000000     0.042130000000     0.190600000000     0.146055   
H257     H      0.010710000000     0.419060000000     0.683110000000     0.0167993  
H258     H      0.017100000000     0.086760000000     0.830020000000     0.0166926  
H259     H      0.064030000000     0.313790000000     0.761230000000     0.0364024  
H260     H      0.976050000000     0.189560000000     0.744400000000     0.0350611  
H261     H      0.022060000000     0.137300000000     0.775790000000     0.0596111  
H262     H      0.975530000000     0.242700000000     0.691210000000     0.0374843  
H263     H      0.014500000000     0.234560000000     0.866000000000     0.0833029  
H264     H      0.015240000000     0.365510000000     0.734860000000     0.0555571  
H265     H      0.019920000000     0.273740000000     0.638480000000     0.0553283  
H266     H      0.064430000000     0.260600000000     0.814570000000     0.0353039  
H267     H      0.014550000000     0.327790000000     0.587400000000     0.0108731  
H268     H      0.978260000000     0.189550000000     0.933330000000     0.155808   
H269     H      0.994770000000     0.679320000000     0.591110000000     0.0284715  
H270     H      0.996770000000     0.830390000000     0.925750000000     0.0213772  
H271     H      0.948900000000     0.761280000000     0.696860000000     0.039065   
H272     H      0.035390000000     0.743510000000     0.821850000000     0.0355847  
H273     H      0.993820000000     0.776040000000     0.874890000000     0.0614065  
H274     H      0.035620000000     0.690130000000     0.768810000000     0.037548   
H275     H      0.992220000000     0.867180000000     0.778300000000     0.083753   
H276     H      0.992550000000     0.731930000000     0.644110000000     0.0582289  
H277     H      0.994020000000     0.636890000000     0.737270000000     0.0561545  
H278     H      0.948630000000     0.814610000000     0.749890000000     0.0367234  
H279     H      0.996960000000     0.585000000000     0.683640000000     0.0229816  
H280     H      0.963830000000     0.937500000000     0.825190000000     0.151932   
H281     H      0.005450000000     0.921980000000     0.182990000000     0.0140125  
H282     H      0.018380000000     0.590580000000     0.333400000000     0.00995144 
H283     H      0.053890000000     0.819540000000     0.266840000000     0.0362063  
H284     H      0.972000000000     0.691640000000     0.246990000000     0.0355509  
H285     H      0.020700000000     0.641860000000     0.279620000000     0.0605368  
H286     H      0.971620000000     0.744430000000     0.193430000000     0.0372436  
H287     H      0.002670000000     0.737400000000     0.370150000000     0.0813125  
H288     H      0.007400000000     0.869730000000     0.236220000000     0.0578688  
H289     H      0.016440000000     0.775610000000     0.142420000000     0.0542044  
H290     H      0.053810000000     0.766840000000     0.320640000000     0.0350612  
H291     H      0.013430000000     0.828350000000     0.089870000000     0.0155627  
H292     H      0.966950000000     0.688240000000     0.435280000000     0.147049   
H293     H      0.022190000000     0.088970000000     0.181410000000     0.0247606  
H294     H      0.026620000000     0.424270000000     0.331560000000     0.00939712 
H295     H      0.984650000000     0.195200000000     0.263330000000     0.0442299  
H296     H      0.072500000000     0.319330000000     0.245680000000     0.0334816  
H297     H      0.030250000000     0.373030000000     0.277380000000     0.0579436  
H298     H      0.072720000000     0.265810000000     0.192490000000     0.0371481  
H299     H      0.027400000000     0.276820000000     0.368880000000     0.0807321  
H300     H      0.027240000000     0.141690000000     0.234060000000     0.0561222  
H301     H      0.029890000000     0.235060000000     0.139250000000     0.0564905  
H302     H      0.984360000000     0.248440000000     0.316160000000     0.0417111  
H303     H      0.025620000000     0.181580000000     0.087270000000     0.0284889  
H304     H      0.991670000000     0.321290000000     0.436470000000     0.14973    
N1       N      0.521850000000     0.129490000000     0.381140000000    -0.294334   
N2       N      0.502790000000     0.378800000000     0.133140000000    -0.254776   
N3       N      0.509320000000     0.628860000000     0.132740000000    -0.263144   
N4       N      0.508700000000     0.878110000000     0.381490000000    -0.256464   
N5       N      0.491020000000     0.634140000000     0.882570000000    -0.277186   
N6       N      0.495930000000     0.882550000000     0.631660000000    -0.229455   
N7       N      0.507200000000     0.133810000000     0.632500000000    -0.271415   
N8       N      0.486350000000     0.381650000000     0.881970000000    -0.264984   
N9       N      0.629800000000     0.129360000000     0.488750000000    -0.290533   
N10      N      0.877910000000     0.379410000000     0.491830000000    -0.254911   
N11      N      0.630310000000     0.878870000000     0.499860000000    -0.279385   
N12      N      0.879020000000     0.629060000000     0.508340000000    -0.236028   
N13      N      0.378450000000     0.132770000000     0.491950000000    -0.279829   
N14      N      0.128770000000     0.381080000000     0.489480000000    -0.263695   
N15      N      0.129750000000     0.632910000000     0.502820000000    -0.279906   
N16      N      0.379380000000     0.881570000000     0.510070000000    -0.236821   
N17      N      0.880500000000     0.503940000000     0.377270000000    -0.279071   
N18      N      0.630440000000     0.510300000000     0.128850000000    -0.230786   
N19      N      0.132500000000     0.489150000000     0.385970000000    -0.29378    
N20      N      0.380570000000     0.496850000000     0.136060000000    -0.254891   
N21      N      0.128230000000     0.492770000000     0.636220000000    -0.27139    
N22      N      0.377410000000     0.485700000000     0.885150000000    -0.267393   
N23      N      0.876630000000     0.507890000000     0.628000000000    -0.25594    
N24      N      0.628670000000     0.502350000000     0.878220000000    -0.246426   
N25      N      0.626480000000     0.632500000000     0.009910000000    -0.254001   
N26      N      0.877910000000     0.881660000000     0.005190000000    -0.234241   
N27      N      0.632670000000     0.381520000000     0.996560000000    -0.272691   
N28      N      0.878590000000     0.132180000000     0.015040000000    -0.256727   
N29      N      0.376770000000     0.630920000000     0.008380000000    -0.281226   
N30      N      0.127740000000     0.877480000000     0.015140000000    -0.257019   
N31      N      0.130220000000     0.129940000000     0.017660000000    -0.288098   
N32      N      0.381320000000     0.378270000000     0.994430000000    -0.263669   
N33      N      0.877820000000     0.002090000000     0.883960000000    -0.26176    
N34      N      0.629040000000     0.012800000000     0.634660000000    -0.246759   
N35      N      0.129340000000     0.011140000000     0.878530000000    -0.270598   
N36      N      0.378010000000     0.003570000000     0.628970000000    -0.230375   
N37      N      0.129600000000     0.022390000000     0.130070000000    -0.29356    
N38      N      0.378840000000     0.011450000000     0.378870000000    -0.255747   
N39      N      0.878530000000     0.013420000000     0.134540000000    -0.279123   
N40      N      0.629660000000     0.021830000000     0.383540000000    -0.266807   
N41      N      0.012860000000     0.130930000000     0.879580000000    -0.275209   
N42      N      0.012010000000     0.377450000000     0.631420000000    -0.250366   
N43      N      0.996030000000     0.880480000000     0.882120000000    -0.252602   
N44      N      0.996340000000     0.628060000000     0.633170000000    -0.227058   
N45      N      0.009350000000     0.633840000000     0.383090000000    -0.280941   
N46      N      0.009030000000     0.879120000000     0.132450000000    -0.256845   
N47      N      0.023480000000     0.380710000000     0.381570000000    -0.289727   
N48      N      0.023250000000     0.131110000000     0.130240000000    -0.262679   
O1       O      0.015970000000     0.112700000000     0.060990000000    -1.04227    
O2       O      0.006930000000     0.896600000000     0.062820000000    -0.789448   
O3       O      0.947970000000     0.008100000000     0.114710000000    -1.00353    
O4       O      0.060250000000     0.015150000000     0.111970000000    -1.07583    
O5       O      0.111290000000     0.015510000000     0.060610000000    -1.05485    
O6       O      0.895420000000     0.010420000000     0.064340000000    -0.782805   
O7       O      0.005790000000     0.948730000000     0.114020000000    -1.01105    
O8       O      0.014630000000     0.061660000000     0.112610000000    -1.05204    
O9       O      0.048730000000     0.965770000000     0.050700000000    -2.06989    
O10      O      0.965160000000     0.050950000000     0.051300000000    -2.083      
O11      O      0.959400000000     0.961500000000     0.054170000000    -0.857615   
O12      O      0.013000000000     0.014310000000     0.014980000000    -2.57108    
O13      O      0.999350000000     0.899040000000     0.952270000000    -0.694257   
O14      O      0.009010000000     0.112740000000     0.949390000000    -0.927895   
O15      O      0.896380000000     0.951590000000     0.007360000000    -0.726751   
O16      O      0.110890000000     0.947450000000     0.010840000000    -0.943504   
O17      O      0.111420000000     0.060210000000     0.013980000000    -1.03652    
O18      O      0.896200000000     0.062460000000     0.013870000000    -0.76825    
O19      O      0.948090000000     0.005180000000     0.900810000000    -0.588454   
O20      O      0.059560000000     0.008450000000     0.897200000000    -0.626328   
O21      O      0.897220000000     0.003480000000     0.953710000000    -0.699269   
O22      O      0.111110000000     0.008430000000     0.948550000000    -0.9179     
O23      O      0.948030000000     0.899060000000     0.006360000000    -0.729931   
O24      O      0.948070000000     0.113660000000     0.011150000000    -0.947637   
O25      O      0.060350000000     0.111720000000     0.014880000000    -1.032      
O26      O      0.058570000000     0.896650000000     0.012890000000    -0.773716   
O27      O      0.001440000000     0.950590000000     0.900080000000    -0.583292   
O28      O      0.007950000000     0.061420000000     0.897790000000    -0.639317   
O29      O      0.048090000000     0.049050000000     0.966750000000    -1.98189    
O30      O      0.965570000000     0.968310000000     0.969090000000    -1.58263    
O31      O      0.958700000000     0.048840000000     0.962260000000    -1.23449    
O32      O      0.046210000000     0.959680000000     0.961590000000    -1.23447    
O33      O      0.015760000000     0.398950000000     0.450990000000    -1.04176    
O34      O      0.007820000000     0.614960000000     0.452680000000    -0.775136   
O35      O      0.949910000000     0.505760000000     0.398000000000    -0.993468   
O36      O      0.062670000000     0.496710000000     0.402230000000    -1.07337    
O37      O      0.112380000000     0.495830000000     0.454870000000    -1.0661     
O38      O      0.896670000000     0.502830000000     0.447670000000    -0.795516   
O39      O      0.008010000000     0.563840000000     0.400650000000    -1.00842    
O40      O      0.016060000000     0.450410000000     0.400020000000    -1.05082    
O41      O      0.050100000000     0.545450000000     0.464170000000    -2.09101    
O42      O      0.965880000000     0.460790000000     0.460800000000    -2.09542    
O43      O      0.960930000000     0.550100000000     0.459640000000    -0.867415   
O44      O      0.013320000000     0.496520000000     0.498530000000    -2.57958    
O45      O      0.999790000000     0.610690000000     0.562940000000    -0.693062   
O46      O      0.008390000000     0.396790000000     0.562230000000    -0.947549   
O47      O      0.897310000000     0.559340000000     0.505900000000    -0.750534   
O48      O      0.111880000000     0.562780000000     0.505960000000    -0.957958   
O49      O      0.111090000000     0.450310000000     0.498520000000    -1.04912    
O50      O      0.896100000000     0.448990000000     0.496610000000    -0.77938    
O51      O      0.947050000000     0.504340000000     0.612040000000    -0.581988   
O52      O      0.058660000000     0.498830000000     0.617070000000    -0.619939   
O53      O      0.896930000000     0.506760000000     0.558460000000    -0.714843   
O54      O      0.110710000000     0.499280000000     0.566270000000    -0.943523   
O55      O      0.949120000000     0.611680000000     0.508220000000    -0.725148   
O56      O      0.947470000000     0.397350000000     0.499300000000    -0.944335   
O57      O      0.059600000000     0.399000000000     0.496200000000    -1.0461     
O58      O      0.060030000000     0.613730000000     0.503430000000    -0.753146   
O59      O      0.001060000000     0.558300000000     0.614590000000    -0.589352   
O60      O      0.006420000000     0.447210000000     0.614930000000    -0.629884   
O61      O      0.047550000000     0.460560000000     0.546580000000    -2.00717    
O62      O      0.965770000000     0.541840000000     0.544600000000    -1.59875    
O63      O      0.958080000000     0.461250000000     0.550010000000    -1.25458    
O64      O      0.046260000000     0.549900000000     0.553550000000    -1.24269    
O65      O      0.611480000000     0.015220000000     0.452860000000    -1.03746    
O66      O      0.395560000000     0.009410000000     0.448940000000    -0.78756    
O67      O      0.505980000000     0.947800000000     0.399700000000    -1.02277    
O68      O      0.514740000000     0.060260000000     0.400230000000    -1.07268    
O69      O      0.515570000000     0.112140000000     0.450780000000    -1.06867    
O70      O      0.507570000000     0.896110000000     0.451280000000    -0.796577   
O71      O      0.448170000000     0.006910000000     0.398390000000    -1.02005    
O72      O      0.560520000000     0.014320000000     0.401180000000    -1.0805     
O73      O      0.465360000000     0.050550000000     0.461320000000    -2.11303    
O74      O      0.549290000000     0.965690000000     0.463050000000    -2.0972     
O75      O      0.459870000000     0.961030000000     0.459640000000    -0.871073   
O76      O      0.512960000000     0.014640000000     0.498270000000    -2.58489    
O77      O      0.397150000000     0.004260000000     0.559390000000    -0.716351   
O78      O      0.611190000000     0.010360000000     0.564830000000    -0.930785   
O79      O      0.449190000000     0.899270000000     0.508210000000    -0.748098   
O80      O      0.447980000000     0.114010000000     0.499410000000    -0.948955   
O81      O      0.560120000000     0.112160000000     0.496160000000    -1.0612     
O82      O      0.560320000000     0.897260000000     0.501760000000    -0.77375    
O83      O      0.501360000000     0.952320000000     0.613630000000    -0.578317   
O84      O      0.506490000000     0.063700000000     0.614980000000    -0.626794   
O85      O      0.499960000000     0.900130000000     0.561740000000    -0.720186   
O86      O      0.507360000000     0.114340000000     0.562720000000    -0.935064   
O87      O      0.397190000000     0.951510000000     0.506920000000    -0.730825   
O88      O      0.611670000000     0.948710000000     0.503730000000    -0.937024   
O89      O      0.610800000000     0.060300000000     0.497040000000    -1.04547    
O90      O      0.396280000000     0.062860000000     0.497540000000    -0.763338   
O91      O      0.448150000000     0.006590000000     0.612370000000    -0.585467   
O92      O      0.559400000000     0.010580000000     0.616160000000    -0.625079   
O93      O      0.548080000000     0.050470000000     0.546140000000    -2.00234    
O94      O      0.466170000000     0.969070000000     0.544390000000    -1.59066    
O95      O      0.546460000000     0.960890000000     0.552350000000    -1.24688    
O96      O      0.458480000000     0.049760000000     0.550300000000    -1.23857    
O97      O      0.450630000000     0.397490000000     0.997760000000    -1.02021    
O98      O      0.446630000000     0.613620000000     0.006380000000    -0.781955   
O99      O      0.397800000000     0.501760000000     0.066200000000    -1.00706    
O100     O      0.397010000000     0.494210000000     0.953740000000    -1.06562    
O101     O      0.447010000000     0.494840000000     0.901080000000    -1.05251    
O102     O      0.450060000000     0.500010000000     0.117150000000    -0.798636   
O103     O      0.396060000000     0.561220000000     0.008860000000    -1.00626    
O104     O      0.398540000000     0.448040000000     0.999960000000    -1.0441     
O105     O      0.457990000000     0.544720000000     0.963250000000    -2.07044    
O106     O      0.461280000000     0.459500000000     0.047000000000    -2.08419    
O107     O      0.457500000000     0.548780000000     0.052850000000    -0.867568   
O108     O      0.495580000000     0.496620000000     0.998000000000    -2.55246    
O109     O      0.556660000000     0.612630000000     0.009410000000    -0.698617   
O110     O      0.562730000000     0.398930000000     0.999990000000    -0.919563   
O111     O      0.506690000000     0.559030000000     0.113950000000    -0.74905    
O112     O      0.496190000000     0.563860000000     0.899690000000    -0.945937   
O113     O      0.493000000000     0.451040000000     0.899900000000    -1.04839    
O114     O      0.501380000000     0.448450000000     0.114980000000    -0.788538   
O115     O      0.611690000000     0.507540000000     0.059180000000    -0.584112   
O116     O      0.611800000000     0.504060000000     0.948150000000    -0.624467   
O117     O      0.560380000000     0.507880000000     0.111910000000    -0.729628   
O118     O      0.559100000000     0.503390000000     0.897720000000    -0.933302   
O119     O      0.504960000000     0.611620000000     0.062620000000    -0.734698   
O120     O      0.503450000000     0.397130000000     0.063220000000    -0.929291   
O121     O      0.494040000000     0.399360000000     0.951110000000    -1.03664    
O122     O      0.494710000000     0.614310000000     0.952090000000    -0.743106   
O123     O      0.609740000000     0.562100000000     0.005810000000    -0.586862   
O124     O      0.613530000000     0.451050000000     0.999910000000    -0.612599   
O125     O      0.543090000000     0.462400000000     0.961320000000    -1.96756    
O126     O      0.542270000000     0.543130000000     0.043910000000    -1.62235    
O127     O      0.550480000000     0.462730000000     0.050620000000    -1.26564    
O128     O      0.547160000000     0.551930000000     0.963130000000    -1.23922    
O129     O      0.521150000000     0.079350000000     0.326160000000    -0.29716    
O130     O      0.517500000000     0.578660000000     0.187050000000    -0.294607   
O131     O      0.489400000000     0.688610000000     0.933210000000    -0.276233   
O132     O      0.512510000000     0.188470000000     0.582360000000    -0.289531   
O133     O      0.684620000000     0.079020000000     0.489920000000    -0.291877   
O134     O      0.685360000000     0.928880000000     0.498040000000    -0.294454   
O135     O      0.428530000000     0.187770000000     0.491260000000    -0.289943   
O136     O      0.079720000000     0.687620000000     0.497030000000    -0.292681   
O137     O      0.931750000000     0.504830000000     0.323410000000    -0.299445   
O138     O      0.186610000000     0.489370000000     0.437020000000    -0.292248   
O139     O      0.183910000000     0.490660000000     0.586930000000    -0.296227   
O140     O      0.822680000000     0.510940000000     0.576900000000    -0.293734   
O141     O      0.576010000000     0.686750000000     0.015970000000    -0.295905   
O142     O      0.687190000000     0.431720000000     0.990600000000    -0.292035   
O143     O      0.425840000000     0.686930000000     0.009450000000    -0.278826   
O144     O      0.080950000000     0.185570000000     0.021040000000    -0.304428   
O145     O      0.823540000000     0.995780000000     0.934390000000    -0.292102   
O146     O      0.184500000000     0.016580000000     0.928090000000    -0.297264   
O147     O      0.079840000000     0.024860000000     0.185350000000    -0.301569   
O148     O      0.929240000000     0.012940000000     0.188940000000    -0.299706   
O149     O      0.008390000000     0.186530000000     0.928840000000    -0.308663   
O150     O      0.993460000000     0.929970000000     0.826660000000    -0.287698   
O151     O      0.997420000000     0.688280000000     0.432340000000    -0.284486   
O152     O      0.021550000000     0.325230000000     0.431150000000    -0.300835   
Tb1      Tb     0.003980000000     0.005290000000     0.076470000000     6.36907    
Tb2      Tb     0.004570000000     0.936500000000     0.009230000000     4.27531    
Tb3      Tb     0.004000000000     0.075670000000     0.005860000000     6.23975    
Tb4      Tb     0.934890000000     0.007520000000     0.010030000000     4.28581    
Tb5      Tb     0.074150000000     0.004290000000     0.005380000000     6.22592    
Tb6      Tb     0.005290000000     0.007190000000     0.937310000000     3.18977    
Tb7      Tb     0.005560000000     0.506510000000     0.437010000000     6.31064    
Tb8      Tb     0.005550000000     0.574120000000     0.505580000000     4.27461    
Tb9      Tb     0.003690000000     0.435020000000     0.506510000000     6.27009    
Tb10     Tb     0.935390000000     0.503490000000     0.502580000000     4.42377    
Tb11     Tb     0.074400000000     0.506010000000     0.509340000000     6.4134     
Tb12     Tb     0.004720000000     0.502180000000     0.576380000000     3.11968    
Tb13     Tb     0.504240000000     0.004640000000     0.436830000000     6.43167    
Tb14     Tb     0.435100000000     0.007670000000     0.503130000000     4.29782    
Tb15     Tb     0.574150000000     0.005000000000     0.508090000000     6.25071    
Tb16     Tb     0.505370000000     0.936770000000     0.504680000000     4.38322    
Tb17     Tb     0.503850000000     0.076190000000     0.506550000000     6.4043     
Tb18     Tb     0.505310000000     0.008700000000     0.575950000000     3.12487    
Tb19     Tb     0.434250000000     0.504860000000     0.008920000000     6.27365    
Tb20     Tb     0.500470000000     0.574340000000     0.006140000000     4.31673    
Tb21     Tb     0.505810000000     0.435310000000     0.006820000000     6.10431    
Tb22     Tb     0.502980000000     0.503290000000     0.075890000000     4.47734    
Tb23     Tb     0.503170000000     0.506860000000     0.936490000000     6.28441    
Tb24     Tb     0.573310000000     0.504730000000     0.003270000000     3.16085    


