data_structure

_audit_creation_method RASPA-1.0
_audit_creation_date 2023-5-19
_audit_author_name 'Poobodin Mano'

_cell_length_a    32.0343
_cell_length_b    32.1274
_cell_length_c    32.0117
_cell_angle_alpha 90
_cell_angle_beta  90
_cell_angle_gamma 90
_cell_volume      32945.8

_symmetry_cell_setting          triclinic
_symmetry_space_group_name_Hall 'P 1'
_symmetry_space_group_name_H-M  'P 1'
_symmetry_Int_Tables_number     1

_symmetry_equiv_pos_as_xyz 'x,y,z'

loop_
_atom_site_label
_atom_site_type_symbol
_atom_site_fract_x
_atom_site_fract_y
_atom_site_fract_z
_atom_site_charge
C1       C      0.032270000000     0.111650000000     0.110840000000     0.708941   
C2       C      0.034650000000     0.918530000000     0.114430000000     0.670355   
C3       C      0.925170000000     0.012080000000     0.122430000000     0.657773   
C4       C      0.118340000000     0.033160000000     0.104110000000     0.714329   
C5       C      0.006770000000     0.917590000000     0.923920000000     0.560321   
C6       C      0.005380000000     0.109380000000     0.918390000000     0.633003   
C7       C      0.924280000000     0.914480000000     0.024350000000     0.579028   
C8       C      0.116640000000     0.921120000000     0.015830000000     0.675085   
C9       C      0.107180000000     0.114330000000     0.021350000000     0.698511   
C10      C      0.914610000000     0.106580000000     0.035000000000     0.676858   
C11      C      0.912580000000     0.007400000000     0.930440000000     0.562392   
C12      C      0.103880000000     0.024410000000     0.911390000000     0.63296    
C13      C      0.024510000000     0.422200000000     0.418040000000     0.717885   
C14      C      0.023380000000     0.616200000000     0.424400000000     0.668059   
C15      C      0.919400000000     0.522790000000     0.418020000000     0.672331   
C16      C      0.112750000000     0.501210000000     0.423580000000     0.726916   
C17      C      0.014640000000     0.606420000000     0.616230000000     0.558116   
C18      C      0.016100000000     0.414160000000     0.610900000000     0.646995   
C19      C      0.924240000000     0.614290000000     0.524070000000     0.584427   
C20      C      0.116720000000     0.607780000000     0.517660000000     0.684945   
C21      C      0.106350000000     0.415410000000     0.502910000000     0.714864   
C22      C      0.913240000000     0.423470000000     0.500930000000     0.684849   
C23      C      0.917370000000     0.517470000000     0.610210000000     0.568249   
C24      C      0.108970000000     0.497870000000     0.616840000000     0.651207   
C25      C      0.616730000000     0.034820000000     0.427530000000     0.71565    
C26      C      0.423840000000     0.009590000000     0.412420000000     0.660924   
C27      C      0.532890000000     0.916470000000     0.422050000000     0.673608   
C28      C      0.529150000000     0.110320000000     0.418790000000     0.715364   
C29      C      0.413870000000     0.008670000000     0.604550000000     0.560001   
C30      C      0.605000000000     0.025680000000     0.620810000000     0.633931   
C31      C      0.424950000000     0.915700000000     0.513000000000     0.587179   
C32      C      0.413800000000     0.107160000000     0.497780000000     0.679557   
C33      C      0.606610000000     0.115700000000     0.507600000000     0.712463   
C34      C      0.617650000000     0.923280000000     0.515150000000     0.681362   
C35      C      0.512050000000     0.922400000000     0.613370000000     0.561073   
C36      C      0.511790000000     0.114850000000     0.611310000000     0.646917   
C37      C      0.416530000000     0.423040000000     0.028430000000     0.72158    
C38      C      0.610200000000     0.414410000000     0.011050000000     0.662118   
C39      C      0.502900000000     0.423050000000     0.915920000000     0.677369   
C40      C      0.501290000000     0.416450000000     0.110210000000     0.71785    
C41      C      0.615030000000     0.606130000000     0.013670000000     0.558837   
C42      C      0.423550000000     0.615740000000     0.033970000000     0.644948   
C43      C      0.608240000000     0.520140000000     0.918920000000     0.584652   
C44      C      0.616260000000     0.496740000000     0.110350000000     0.688341   
C45      C      0.423090000000     0.501300000000     0.115880000000     0.713387   
C46      C      0.415750000000     0.517430000000     0.922950000000     0.687253   
C47      C      0.518220000000     0.613820000000     0.925670000000     0.563036   
C48      C      0.516160000000     0.608410000000     0.118750000000     0.64864    
C49      C      0.521660000000     0.213130000000     0.366680000000    -0.0449889  
C50      C      0.505730000000     0.311720000000     0.158300000000    -0.045456   
C51      C      0.485930000000     0.396590000000     0.183480000000     0.0326146  
C52      C      0.486910000000     0.342200000000     0.126470000000     0.0322688  
C53      C      0.471900000000     0.269510000000     0.252930000000    -0.0548633  
C54      C      0.555540000000     0.252730000000     0.271300000000    -0.0549874  
C55      C      0.503310000000     0.290970000000     0.231310000000     0.0590906  
C56      C      0.505020000000     0.364190000000     0.212920000000    -0.04521    
C57      C      0.524130000000     0.231430000000     0.293070000000     0.0593808  
C58      C      0.522850000000     0.158750000000     0.314100000000    -0.0454194  
C59      C      0.482060000000     0.239980000000     0.283500000000    -0.0568961  
C60      C      0.542800000000     0.127730000000     0.344510000000     0.0329458  
C61      C      0.541090000000     0.184230000000     0.399550000000     0.0315256  
C62      C      0.545380000000     0.282220000000     0.240710000000    -0.0566547  
C63      C      0.522390000000     0.710420000000     0.172040000000    -0.0400912  
C64      C      0.533620000000     0.811840000000     0.375630000000    -0.0423655  
C65      C      0.548390000000     0.897330000000     0.348920000000     0.0316426  
C66      C      0.551140000000     0.843420000000     0.406550000000     0.0247987  
C67      C      0.569660000000     0.769650000000     0.283270000000    -0.0550403  
C68      C      0.486870000000     0.748210000000     0.265670000000    -0.0549944  
C69      C      0.537080000000     0.790370000000     0.303640000000     0.0610824  
C70      C      0.531270000000     0.863520000000     0.320090000000    -0.0449303  
C71      C      0.519430000000     0.727730000000     0.245050000000     0.0610936  
C72      C      0.525460000000     0.655590000000     0.224130000000    -0.0446628  
C73      C      0.561050000000     0.738530000000     0.254140000000    -0.0569108  
C74      C      0.507540000000     0.623530000000     0.193770000000     0.0319901  
C75      C      0.503990000000     0.681170000000     0.139440000000     0.0193989  
C76      C      0.495480000000     0.779320000000     0.294810000000    -0.0568823  
C77      C      0.506650000000     0.818260000000     0.667570000000    -0.0399799  
C78      C      0.525730000000     0.720070000000     0.875780000000    -0.038074   
C79      C      0.512130000000     0.633460000000     0.851660000000     0.0194874  
C80      C      0.512730000000     0.688660000000     0.909500000000     0.0127936  
C81      C      0.551530000000     0.754680000000     0.790310000000    -0.0563215  
C82      C      0.478850000000     0.786770000000     0.753980000000    -0.0563497  
C83      C      0.512290000000     0.740080000000     0.803750000000     0.0601815  
C84      C      0.525610000000     0.667960000000     0.821590000000    -0.0402976  
C85      C      0.518090000000     0.801390000000     0.740560000000     0.060145   
C86      C      0.502850000000     0.872450000000     0.719540000000    -0.0380997  
C87      C      0.554250000000     0.785080000000     0.759060000000    -0.054078   
C88      C      0.515910000000     0.906260000000     0.688430000000     0.0133566  
C89      C      0.519910000000     0.848700000000     0.633130000000     0.0183633  
C90      C      0.476140000000     0.756440000000     0.785290000000    -0.0541024  
C91      C      0.502400000000     0.321040000000     0.863040000000    -0.0455593  
C92      C      0.504360000000     0.220180000000     0.658660000000    -0.0449831  
C93      C      0.520870000000     0.134800000000     0.684950000000     0.0189328  
C94      C      0.521420000000     0.189160000000     0.626910000000     0.0329042  
C95      C      0.544380000000     0.261860000000     0.749680000000    -0.0551722  
C96      C      0.462500000000     0.283640000000     0.770810000000    -0.0549983  
C97      C      0.510870000000     0.241510000000     0.730500000000     0.0611767  
C98      C      0.503970000000     0.168550000000     0.713900000000    -0.0400703  
C99      C      0.496020000000     0.303760000000     0.790240000000     0.0609713  
C100     C      0.503270000000     0.375820000000     0.810650000000    -0.0426156  
C101     C      0.537160000000     0.292790000000     0.779370000000    -0.0568541  
C102     C      0.487390000000     0.408020000000     0.841930000000     0.0249429  
C103     C      0.486270000000     0.350720000000     0.896470000000     0.0335356  
C104     C      0.469720000000     0.252720000000     0.741090000000    -0.0570881  
C105     C      0.653120000000     0.221160000000     0.487560000000    -0.0466124  
C106     C      0.858040000000     0.322300000000     0.497910000000    -0.0452546  
C107     C      0.839630000000     0.409810000000     0.482500000000     0.0253348  
C108     C      0.892940000000     0.351420000000     0.483750000000     0.0331082  
C109     C      0.767910000000     0.285770000000     0.453230000000    -0.0548064  
C110     C      0.741130000000     0.265320000000     0.533800000000    -0.0548859  
C111     C      0.785300000000     0.306290000000     0.487700000000     0.0604736  
C112     C      0.806880000000     0.378070000000     0.496450000000    -0.0427138  
C113     C      0.724000000000     0.244590000000     0.499370000000     0.0605973  
C114     C      0.708860000000     0.171040000000     0.494090000000    -0.0466042  
C115     C      0.737510000000     0.255090000000     0.458870000000    -0.0568833  
C116     C      0.679900000000     0.137620000000     0.511670000000     0.0348139  
C117     C      0.620500000000     0.190830000000     0.504490000000     0.0346727  
C118     C      0.771580000000     0.295880000000     0.528170000000    -0.0567275  
C119     C      0.822570000000     0.669760000000     0.520940000000    -0.040676   
C120     C      0.723740000000     0.876340000000     0.524760000000    -0.0451724  
C121     C      0.639290000000     0.850800000000     0.502330000000     0.0258454  
C122     C      0.693020000000     0.908910000000     0.508200000000     0.0322173  
C123     C      0.755660000000     0.792200000000     0.556250000000    -0.0565366  
C124     C      0.796930000000     0.755560000000     0.488570000000    -0.0565164  
C125     C      0.745990000000     0.804870000000     0.515260000000     0.0606023  
C126     C      0.672450000000     0.821190000000     0.519460000000    -0.0428331  
C127     C      0.806390000000     0.742670000000     0.529540000000     0.060567   
C128     C      0.878500000000     0.720600000000     0.523590000000    -0.040358   
C129     C      0.785650000000     0.761370000000     0.563190000000    -0.0545033  
C130     C      0.909700000000     0.688240000000     0.539560000000     0.0185028  
C131     C      0.851110000000     0.635060000000     0.536830000000     0.019468   
C132     C      0.766980000000     0.786420000000     0.481640000000    -0.0545046  
C133     C      0.208760000000     0.359950000000     0.488410000000    -0.0468086  
C134     C      0.307430000000     0.153070000000     0.492620000000    -0.0421992  
C135     C      0.393760000000     0.179500000000     0.481320000000     0.0326705  
C136     C      0.340300000000     0.121270000000     0.478860000000     0.0238668  
C137     C      0.272040000000     0.235610000000     0.524360000000    -0.0568357  
C138     C      0.237840000000     0.275600000000     0.454640000000    -0.0570126  
C139     C      0.285930000000     0.224880000000     0.484030000000     0.0599234  
C140     C      0.358700000000     0.208620000000     0.495250000000    -0.0450689  
C141     C      0.224300000000     0.286580000000     0.495010000000     0.0600771  
C142     C      0.153090000000     0.309660000000     0.483340000000    -0.046498   
C143     C      0.241490000000     0.266190000000     0.529640000000    -0.0549994  
C144     C      0.120530000000     0.340290000000     0.499980000000     0.0345706  
C145     C      0.179820000000     0.393750000000     0.505430000000     0.0356122  
C146     C      0.268430000000     0.244980000000     0.449340000000    -0.0551235  
C147     C      0.172430000000     0.709680000000     0.509730000000    -0.0421655  
C148     C      0.378010000000     0.809470000000     0.523280000000    -0.0407215  
C149     C      0.352030000000     0.894200000000     0.503030000000     0.0202236  
C150     C      0.410870000000     0.840560000000     0.508310000000     0.0204531  
C151     C      0.293350000000     0.775810000000     0.551000000000    -0.0568602  
C152     C      0.258940000000     0.737040000000     0.480710000000    -0.0568004  
C153     C      0.307010000000     0.787140000000     0.510770000000     0.0608299  
C154     C      0.322520000000     0.860250000000     0.518470000000    -0.0405059  
C155     C      0.245040000000     0.725940000000     0.520920000000     0.0607354  
C156     C      0.223560000000     0.654330000000     0.511430000000    -0.0458341  
C157     C      0.262610000000     0.745400000000     0.555870000000    -0.0547088  
C158     C      0.191530000000     0.622440000000     0.526470000000     0.0345668  
C159     C      0.137480000000     0.681050000000     0.524740000000     0.0247762  
C160     C      0.289710000000     0.767420000000     0.475830000000    -0.0548751  
C161     C      0.817730000000     0.512780000000     0.364290000000    -0.0416332  
C162     C      0.720890000000     0.498310000000     0.157060000000    -0.0422323  
C163     C      0.635930000000     0.478400000000     0.182690000000     0.0335964  
C164     C      0.690170000000     0.480130000000     0.125400000000     0.0244601  
C165     C      0.750120000000     0.537160000000     0.239010000000    -0.0568352  
C166     C      0.792770000000     0.473840000000     0.281150000000    -0.0569832  
C167     C      0.741670000000     0.495200000000     0.229520000000     0.0607364  
C168     C      0.668450000000     0.496810000000     0.212190000000    -0.0450508  
C169     C      0.800910000000     0.515800000000     0.290910000000     0.0610161  
C170     C      0.873160000000     0.514380000000     0.312550000000    -0.0448736  
C171     C      0.779550000000     0.547230000000     0.269500000000    -0.055091   
C172     C      0.903710000000     0.533990000000     0.343400000000     0.0324704  
C173     C      0.845750000000     0.532250000000     0.397550000000     0.0235431  
C174     C      0.763300000000     0.463760000000     0.250670000000    -0.0549048  
C175     C      0.166760000000     0.488960000000     0.319320000000    -0.0473119  
C176     C      0.319070000000     0.488350000000     0.169700000000    -0.0471658  
C177     C      0.407320000000     0.498480000000     0.190850000000     0.0355856  
C178     C      0.349100000000     0.501560000000     0.135100000000     0.0363931  
C179     C      0.287390000000     0.540830000000     0.258500000000    -0.0551811  
C180     C      0.254200000000     0.465410000000     0.286890000000    -0.0568348  
C181     C      0.302220000000     0.503360000000     0.241870000000     0.0602461  
C182     C      0.373210000000     0.485630000000     0.221760000000    -0.0469241  
C183     C      0.239310000000     0.503280000000     0.303330000000     0.0599989  
C184     C      0.218360000000     0.484570000000     0.373770000000    -0.0473608  
C185     C      0.256240000000     0.540790000000     0.288960000000    -0.0550457  
C186     C      0.187540000000     0.497350000000     0.407890000000     0.037012   
C187     C      0.132080000000     0.501990000000     0.349450000000     0.0365267  
C188     C      0.285530000000     0.465450000000     0.256370000000    -0.0570222  
C189     C      0.156770000000     0.498880000000     0.721310000000    -0.040015   
C190     C      0.362510000000     0.505530000000     0.820560000000    -0.0423308  
C191     C      0.341040000000     0.525690000000     0.906790000000     0.0333232  
C192     C      0.395840000000     0.524080000000     0.849020000000     0.025468   
C193     C      0.278770000000     0.469410000000     0.793690000000    -0.0568821  
C194     C      0.239630000000     0.534780000000     0.751270000000    -0.056743   
C195     C      0.289610000000     0.510890000000     0.802830000000     0.061167   
C196     C      0.310340000000     0.507150000000     0.875380000000    -0.0452487  
C197     C      0.228970000000     0.493290000000     0.741900000000     0.0610266  
C198     C      0.211520000000     0.496970000000     0.668620000000    -0.0444289  
C199     C      0.248640000000     0.460820000000     0.763400000000    -0.0548652  
C200     C      0.181510000000     0.479840000000     0.635800000000     0.0318776  
C201     C      0.124630000000     0.481660000000     0.690650000000     0.01877    
C202     C      0.269760000000     0.543360000000     0.781520000000    -0.0548377  
C203     C      0.811980000000     0.532220000000     0.659230000000    -0.0403003  
C204     C      0.710960000000     0.518020000000     0.864630000000    -0.040468   
C205     C      0.623950000000     0.536300000000     0.845190000000     0.0196047  
C206     C      0.681750000000     0.532280000000     0.899530000000     0.0191782  
C207     C      0.738670000000     0.489950000000     0.777750000000    -0.0565373  
C208     C      0.779700000000     0.559500000000     0.744820000000    -0.056693   
C209     C      0.728430000000     0.530040000000     0.792310000000     0.060613   
C210     C      0.656020000000     0.522090000000     0.812760000000    -0.0407104  
C211     C      0.790040000000     0.519390000000     0.730410000000     0.0607924  
C212     C      0.863490000000     0.525590000000     0.713910000000    -0.0381409  
C213     C      0.769220000000     0.484830000000     0.747040000000    -0.054613   
C214     C      0.896790000000     0.509520000000     0.683770000000     0.0141067  
C215     C      0.842160000000     0.516630000000     0.625700000000     0.0195879  
C216     C      0.749100000000     0.564630000000     0.775520000000    -0.054483   
C217     C      0.876690000000     0.808640000000     0.012380000000    -0.0512823  
C218     C      0.670340000000     0.708110000000     0.019300000000    -0.0364362  
C219     C      0.689320000000     0.621520000000     0.999670000000     0.0434634  
C220     C      0.635480000000     0.679540000000     0.003630000000     0.00299822 
C221     C      0.756700000000     0.734730000000     0.050140000000    -0.0556497  
C222     C      0.791900000000     0.776340000000     0.981890000000    -0.0475263  
C223     C      0.743180000000     0.725120000000     0.009390000000     0.0514456  
C224     C      0.721680000000     0.652890000000     0.015500000000    -0.052521   
C225     C      0.805150000000     0.786200000000     0.022670000000     0.050725   
C226     C      0.821450000000     0.859650000000     0.017720000000    -0.0514554  
C227     C      0.787410000000     0.765010000000     0.056560000000    -0.0530924  
C228     C      0.851110000000     0.892980000000     0.034560000000     0.0217082  
C229     C      0.909500000000     0.839210000000     0.028830000000     0.0209597  
C230     C      0.761180000000     0.746050000000     0.975460000000    -0.0457417  
C231     C      0.809240000000     0.152820000000     0.034180000000    -0.0536342  
C232     C      0.711670000000     0.359480000000     0.021130000000    -0.0384894  
C233     C      0.624980000000     0.339550000000     0.001850000000     0.0202459  
C234     C      0.683610000000     0.392940000000     0.002070000000     0.0109125  
C235     C      0.737400000000     0.276630000000     0.059590000000    -0.0560806  
C236     C      0.777860000000     0.234050000000     0.994990000000    -0.0477199  
C237     C      0.727850000000     0.286130000000     0.017710000000     0.0516899  
C238     C      0.655780000000     0.308580000000     0.020990000000    -0.0418725  
C239     C      0.787920000000     0.225020000000     0.036850000000     0.0508031  
C240     C      0.861220000000     0.207990000000     0.032390000000    -0.0557853  
C241     C      0.767270000000     0.246340000000     0.068930000000    -0.0535025  
C242     C      0.894740000000     0.179320000000     0.050360000000     0.0342097  
C243     C      0.840810000000     0.121790000000     0.052070000000     0.026966   
C244     C      0.748090000000     0.264410000000     0.985650000000    -0.0461184  
C245     C      0.171350000000     0.819930000000     0.029500000000    -0.0389631  
C246     C      0.376940000000     0.720520000000     0.032530000000    -0.0510079  
C247     C      0.351410000000     0.635720000000     0.052450000000     0.0307525  
C248     C      0.408970000000     0.689650000000     0.049510000000     0.0212712  
C249     C      0.293570000000     0.750970000000     0.997630000000    -0.0477519  
C250     C      0.256120000000     0.794200000000     0.063600000000    -0.0559094  
C251     C      0.305080000000     0.742000000000     0.039130000000     0.0519382  
C252     C      0.321590000000     0.668740000000     0.035520000000    -0.0446238  
C253     C      0.244190000000     0.802700000000     0.022130000000     0.0521184  
C254     C      0.222890000000     0.874920000000     0.025000000000    -0.0418791  
C255     C      0.263300000000     0.781070000000     0.989360000000    -0.0459318  
C256     C      0.191360000000     0.905530000000     0.006590000000     0.0207436  
C257     C      0.137160000000     0.847490000000     0.011250000000     0.0130324  
C258     C      0.286340000000     0.764000000000     0.071880000000    -0.0537217  
C259     C      0.309960000000     0.374470000000     0.039860000000    -0.0439998  
C260     C      0.210460000000     0.168720000000     0.022670000000    -0.0566177  
C261     C      0.121950000000     0.189400000000     0.027770000000     0.0376214  
C262     C      0.179590000000     0.135230000000     0.036700000000     0.0347925  
C263     C      0.242330000000     0.254070000000     0.992680000000    -0.047907   
C264     C      0.273870000000     0.290510000000     0.065580000000    -0.0559821  
C265     C      0.226720000000     0.241650000000     0.031850000000     0.050438   
C266     C      0.156030000000     0.220120000000     0.014620000000    -0.0580346  
C267     C      0.289330000000     0.303100000000     0.026400000000     0.051063   
C268     C      0.361680000000     0.320010000000     0.040220000000    -0.0445377  
C269     C      0.273310000000     0.284630000000     0.990120000000    -0.0461632  
C270     C      0.396580000000     0.349360000000     0.026370000000     0.0253101  
C271     C      0.341500000000     0.407590000000     0.026320000000     0.0242808  
C272     C      0.242750000000     0.260100000000     0.068130000000    -0.053738   
C273     C      0.649530000000     0.032140000000     0.729530000000    -0.0373621  
C274     C      0.853090000000     0.002410000000     0.829310000000    -0.0455727  
C275     C      0.836800000000     0.010380000000     0.918750000000    -0.00381948 
C276     C      0.889210000000     0.014300000000     0.857950000000     0.00636695 
C277     C      0.765450000000     0.978920000000     0.800650000000    -0.0486451  
C278     C      0.734040000000     0.053690000000     0.768620000000    -0.0556942  
C279     C      0.780550000000     0.017120000000     0.816030000000     0.0522404  
C280     C      0.803750000000     0.999170000000     0.886050000000    -0.0125621  
C281     C      0.719520000000     0.015490000000     0.752690000000     0.0521076  
C282     C      0.706290000000     0.031660000000     0.680090000000    -0.042337   
C283     C      0.735170000000     0.978270000000     0.769240000000    -0.0459029  
C284     C      0.677850000000     0.020190000000     0.643550000000     0.021488   
C285     C      0.617240000000     0.020690000000     0.696290000000     0.00759768 
C286     C      0.764340000000     0.054340000000     0.800010000000    -0.0534527  
C287     C      0.148320000000     0.015700000000     0.804220000000    -0.0503667  
C288     C      0.355820000000     0.015370000000     0.704960000000    -0.0574275  
C289     C      0.339080000000     0.994550000000     0.617920000000     0.0472905  
C290     C      0.391100000000     0.998370000000     0.677620000000     0.0398349  
C291     C      0.263190000000     0.975020000000     0.741800000000    -0.0436272  
C292     C      0.238470000000     0.056880000000     0.758130000000    -0.0549042  
C293     C      0.282260000000     0.007800000000     0.720100000000     0.0441127  
C294     C      0.306030000000     0.011590000000     0.648070000000    -0.0694754  
C295     C      0.219800000000     0.024140000000     0.780230000000     0.0516761  
C296     C      0.204740000000     0.022370000000     0.854270000000    -0.0544611  
C297     C      0.232250000000     0.982970000000     0.771620000000    -0.0494799  
C298     C      0.175540000000     0.040120000000     0.887620000000     0.031755   
C299     C      0.116290000000     0.032800000000     0.835480000000     0.0191795  
C300     C      0.269420000000     0.048940000000     0.728330000000    -0.0529426  
C301     C      0.380040000000     0.017640000000     0.304960000000    -0.0565887  
C302     C      0.174030000000     0.032930000000     0.204630000000    -0.0553005  
C303     C      0.193850000000     0.044890000000     0.116640000000     0.0358668  
C304     C      0.141610000000     0.052220000000     0.175420000000     0.0342145  
C305     C      0.256120000000     0.991080000000     0.231300000000    -0.0483225  
C306     C      0.300040000000     0.055720000000     0.270070000000    -0.0560241  
C307     C      0.247910000000     0.032650000000     0.220040000000     0.0509665  
C308     C      0.224270000000     0.025920000000     0.148220000000    -0.0562947  
C309     C      0.308150000000     0.014160000000     0.281490000000     0.0515862  
C310     C      0.323430000000     0.018920000000     0.355200000000    -0.0397172  
C311     C      0.286070000000     0.982060000000     0.261750000000    -0.0466836  
C312     C      0.350890000000     0.000490000000     0.389540000000     0.0126585  
C313     C      0.410480000000     0.999500000000     0.337050000000     0.0547962  
C314     C      0.270210000000     0.064730000000     0.239530000000    -0.0538028  
C315     C      0.673620000000     0.033870000000     0.327810000000    -0.055479   
C316     C      0.881500000000     0.025900000000     0.229650000000    -0.0415776  
C317     C      0.852770000000     0.002200000000     0.146530000000     0.0120081  
C318     C      0.912680000000     0.007180000000     0.198520000000     0.0188695  
C319     C      0.798950000000     0.061920000000     0.262290000000    -0.0558515  
C320     C      0.758840000000     0.997390000000     0.305130000000    -0.0479728  
C321     C      0.809820000000     0.020290000000     0.253790000000     0.0517963  
C322     C      0.824730000000     0.021530000000     0.179850000000    -0.0385906  
C323     C      0.747480000000     0.038990000000     0.313140000000     0.0514071  
C324     C      0.723520000000     0.036630000000     0.385020000000    -0.0459602  
C325     C      0.768040000000     0.071040000000     0.291740000000    -0.0536819  
C326     C      0.690550000000     0.054320000000     0.414790000000     0.0331365  
C327     C      0.638920000000     0.051760000000     0.355290000000     0.0348196  
C328     C      0.789730000000     0.988280000000     0.275670000000    -0.0463026  
C329     C      0.008270000000     0.157140000000     0.813350000000    -0.0690639  
C330     C      0.012840000000     0.360690000000     0.713160000000    -0.051631   
C331     C      0.026020000000     0.339570000000     0.625560000000     0.0350631  
C332     C      0.029910000000     0.393600000000     0.683560000000     0.0228783  
C333     C      0.976520000000     0.278060000000     0.741700000000    -0.0497262  
C334     C      0.043840000000     0.238660000000     0.780850000000    -0.0530555  
C335     C      0.017700000000     0.288020000000     0.730040000000     0.0529426  
C336     C      0.009470000000     0.308920000000     0.658000000000    -0.0559935  
C337     C      0.002670000000     0.228900000000     0.792700000000     0.0450407  
C338     C      0.010350000000     0.211830000000     0.865680000000    -0.0627059  
C339     C      0.969210000000     0.248640000000     0.772830000000    -0.0438328  
C340     C      0.993810000000     0.182800000000     0.899560000000     0.0519895  
C341     C      0.991440000000     0.125600000000     0.844600000000     0.0431202  
C342     C      0.051150000000     0.268070000000     0.749710000000    -0.0553397  
C343     C      0.009300000000     0.812020000000     0.875460000000    -0.0698256  
C344     C      0.003560000000     0.709730000000     0.669880000000    -0.0509877  
C345     C      0.018740000000     0.622730000000     0.691460000000     0.0154769  
C346     C      0.020160000000     0.680240000000     0.636210000000     0.0208902  
C347     C      0.045840000000     0.747990000000     0.761150000000    -0.0453647  
C348     C      0.965070000000     0.770570000000     0.785210000000    -0.0626637  
C349     C      0.011570000000     0.727970000000     0.742770000000     0.0451373  
C350     C      0.002530000000     0.655610000000     0.722190000000    -0.0491752  
C351     C      0.999350000000     0.790640000000     0.803540000000     0.0744565  
C352     C      0.006750000000     0.863870000000     0.820580000000    -0.0681078  
C353     C      0.039950000000     0.779050000000     0.791230000000    -0.0718172  
C354     C      0.991610000000     0.897630000000     0.850850000000     0.0434128  
C355     C      0.994300000000     0.843230000000     0.908390000000     0.0484054  
C356     C      0.970970000000     0.739550000000     0.755050000000    -0.0401043  
C357     C      0.034280000000     0.668860000000     0.321270000000    -0.0432855  
C358     C      0.039030000000     0.871850000000     0.219270000000    -0.0447402  
C359     C      0.052360000000     0.846020000000     0.133000000000     0.0234443  
C360     C      0.054720000000     0.903320000000     0.187270000000     0.0322869  
C361     C      0.003750000000     0.790540000000     0.252510000000    -0.0881555  
C362     C      0.071140000000     0.751200000000     0.291630000000    -0.0475091  
C363     C      0.044880000000     0.800170000000     0.240360000000     0.0722918  
C364     C      0.036970000000     0.816670000000     0.167210000000    -0.0417928  
C365     C      0.030000000000     0.741490000000     0.303640000000     0.0427253  
C366     C      0.038650000000     0.720800000000     0.375840000000    -0.0392911  
C367     C      0.996530000000     0.761390000000     0.283950000000    -0.0230625  
C368     C      0.021120000000     0.691090000000     0.408680000000     0.0126886  
C369     C      0.016220000000     0.636360000000     0.350820000000     0.0238122  
C370     C      0.078380000000     0.780420000000     0.260210000000    -0.0642235  
C371     C      0.032210000000     0.164970000000     0.213930000000    -0.0566736  
C372     C      0.040290000000     0.373050000000     0.312310000000    -0.0438237  
C373     C      0.020680000000     0.348520000000     0.397890000000     0.0241251  
C374     C      0.024130000000     0.406190000000     0.342770000000     0.0227912  
C375     C      0.070370000000     0.288260000000     0.280060000000    -0.0478372  
C376     C      0.000990000000     0.250890000000     0.242370000000    -0.0879785  
C377     C      0.029900000000     0.301090000000     0.291410000000     0.0416763  
C378     C      0.037440000000     0.318930000000     0.364490000000    -0.0440374  
C379     C      0.041460000000     0.237960000000     0.231150000000     0.0698339  
C380     C      0.033100000000     0.216710000000     0.158850000000    -0.0549726  
C381     C      0.075960000000     0.256990000000     0.250150000000    -0.0635527  
C382     C      0.049170000000     0.185160000000     0.126890000000     0.0330609  
C383     C      0.047620000000     0.130830000000     0.184220000000     0.036649   
C384     C      0.995410000000     0.282180000000     0.272260000000    -0.0234212  
H1       H      0.989860000000     0.983770000000     0.051620000000    -1.2327     
H2       H      0.041270000000     0.040690000000     0.039950000000    -1.03179    
H3       H      0.970750000000     0.082520000000     0.983490000000    -0.490346   
H4       H      0.084310000000     0.979570000000     0.974220000000    -0.504883   
H5       H      0.987760000000     0.546900000000     0.486470000000    -1.24054    
H6       H      0.039540000000     0.489690000000     0.491770000000    -1.07583    
H7       H      0.972690000000     0.444410000000     0.550710000000    -0.503904   
H8       H      0.086670000000     0.547190000000     0.558100000000    -0.545757   
H9       H      0.489640000000     0.984180000000     0.483200000000    -1.23524    
H10      H      0.540840000000     0.041420000000     0.492080000000    -1.05606    
H11      H      0.585340000000     0.982000000000     0.558540000000    -0.514261   
H12      H      0.471350000000     0.085140000000     0.548940000000    -0.522453   
H13      H      0.543220000000     0.483760000000     0.985500000000    -1.24335    
H14      H      0.490780000000     0.489980000000     0.042510000000    -1.06898    
H15      H      0.445450000000     0.556990000000     0.984320000000    -0.516968   
H16      H      0.558060000000     0.547490000000     0.088670000000    -0.537104   
H17      H      0.570320000000     0.298330000000     0.224630000000     0.0389282  
H18      H      0.531290000000     0.245650000000     0.373820000000     0.0347247  
H19      H      0.533120000000     0.150730000000     0.281860000000     0.0341455  
H20      H      0.451630000000     0.397460000000     0.188770000000     0.019945   
H21      H      0.575120000000     0.190850000000     0.401400000000     0.0206363  
H22      H      0.495560000000     0.279660000000     0.149930000000     0.0340333  
H23      H      0.494500000000     0.371210000000     0.245300000000     0.0346111  
H24      H      0.500510000000     0.335400000000     0.095270000000     0.0273147  
H25      H      0.530580000000     0.096140000000     0.337380000000     0.0276124  
H26      H      0.588040000000     0.246510000000     0.278210000000     0.0424061  
H27      H      0.527280000000     0.191900000000     0.430450000000     0.0314165  
H28      H      0.439390000000     0.275900000000     0.246190000000     0.041895   
H29      H      0.487020000000     0.211350000000     0.368990000000     0.0373243  
H30      H      0.498640000000     0.427620000000     0.192020000000     0.0321188  
H31      H      0.576970000000     0.127420000000     0.338750000000     0.0203931  
H32      H      0.540400000000     0.313000000000     0.156130000000     0.0370004  
H33      H      0.539670000000     0.366930000000     0.211960000000     0.0375472  
H34      H      0.457140000000     0.223970000000     0.299720000000     0.0389021  
H35      H      0.488250000000     0.155630000000     0.315540000000     0.0371568  
H36      H      0.452730000000     0.336460000000     0.124500000000     0.0199021  
H37      H      0.469770000000     0.794850000000     0.310220000000     0.0395129  
H38      H      0.510950000000     0.742490000000     0.165450000000     0.0350011  
H39      H      0.516110000000     0.646690000000     0.256420000000     0.0351401  
H40      H      0.582540000000     0.900380000000     0.343450000000     0.0236269  
H41      H      0.469620000000     0.685910000000     0.138350000000     0.0280504  
H42      H      0.545410000000     0.780420000000     0.384380000000     0.0350892  
H43      H      0.541440000000     0.870520000000     0.287580000000     0.0355164  
H44      H      0.538580000000     0.836030000000     0.438050000000     0.034454   
H45      H      0.523160000000     0.593180000000     0.199660000000     0.0273418  
H46      H      0.454740000000     0.740250000000     0.258800000000     0.0434106  
H47      H      0.516800000000     0.690030000000     0.108420000000     0.0351909  
H48      H      0.601780000000     0.777870000000     0.289870000000     0.0432259  
H49      H      0.557050000000     0.710400000000     0.169200000000     0.0382041  
H50      H      0.533540000000     0.927390000000     0.340300000000     0.0261364  
H51      H      0.473710000000     0.619490000000     0.200450000000     0.0241655  
H52      H      0.498930000000     0.811580000000     0.378020000000     0.037185   
H53      H      0.496520000000     0.864310000000     0.321040000000     0.0372782  
H54      H      0.586740000000     0.723240000000     0.238430000000     0.0395353  
H55      H      0.560170000000     0.654900000000     0.222290000000     0.0381553  
H56      H      0.585630000000     0.839720000000     0.407830000000     0.0265717  
H57      H      0.445730000000     0.745420000000     0.795080000000     0.0439708  
H58      H      0.519800000000     0.787080000000     0.660050000000     0.0349273  
H59      H      0.513090000000     0.882180000000     0.751310000000     0.0363178  
H60      H      0.478540000000     0.626480000000     0.846280000000     0.03089    
H61      H      0.553830000000     0.844500000000     0.626970000000     0.0308967  
H62      H      0.513980000000     0.751350000000     0.885030000000     0.0362789  
H63      H      0.514000000000     0.659940000000     0.789800000000     0.0350453  
H64      H      0.531150000000     0.695080000000     0.938250000000     0.0366263  
H65      H      0.496560000000     0.934390000000     0.694390000000     0.0372363  
H66      H      0.450420000000     0.798700000000     0.740200000000     0.0399497  
H67      H      0.503090000000     0.840290000000     0.603930000000     0.0344368  
H68      H      0.579980000000     0.742440000000     0.803790000000     0.0401543  
H69      H      0.471980000000     0.815510000000     0.667780000000     0.0372209  
H70      H      0.529990000000     0.604820000000     0.843760000000     0.0352875  
H71      H      0.548930000000     0.914980000000     0.694700000000     0.0340345  
H72      H      0.560440000000     0.721650000000     0.874380000000     0.0375025  
H73      H      0.560340000000     0.669240000000     0.820260000000     0.0375896  
H74      H      0.584660000000     0.795910000000     0.749080000000     0.0440278  
H75      H      0.468160000000     0.869880000000     0.719810000000     0.0374994  
H76      H      0.479330000000     0.693940000000     0.917380000000     0.0341152  
H77      H      0.443330000000     0.237440000000     0.726610000000     0.0394887  
H78      H      0.490760000000     0.289190000000     0.870330000000     0.035719   
H79      H      0.492170000000     0.384780000000     0.778940000000     0.0349546  
H80      H      0.554880000000     0.131000000000     0.690810000000     0.0288422  
H81      H      0.451890000000     0.346780000000     0.899310000000     0.0236362  
H82      H      0.515210000000     0.251880000000     0.649710000000     0.0351695  
H83      H      0.514590000000     0.161620000000     0.746280000000     0.0348879  
H84      H      0.506420000000     0.195640000000     0.596270000000     0.0279181  
H85      H      0.502510000000     0.438340000000     0.834790000000     0.0325842  
H86      H      0.430730000000     0.291770000000     0.779010000000     0.0430952  
H87      H      0.500450000000     0.341610000000     0.926830000000     0.0268865  
H88      H      0.576150000000     0.253490000000     0.741730000000     0.0431904  
H89      H      0.537150000000     0.320490000000     0.864100000000     0.0374298  
H90      H      0.505430000000     0.104900000000     0.693170000000     0.0342651  
H91      H      0.453170000000     0.411960000000     0.837520000000     0.0273969  
H92      H      0.469610000000     0.219830000000     0.657510000000     0.038207   
H93      H      0.469210000000     0.167670000000     0.713460000000     0.0376515  
H94      H      0.563580000000     0.307820000000     0.794070000000     0.0391648  
H95      H      0.538040000000     0.376270000000     0.810530000000     0.0365247  
H96      H      0.555530000000     0.194470000000     0.623200000000     0.0240963  
H97      H      0.784720000000     0.311010000000     0.555360000000     0.0397183  
H98      H      0.642980000000     0.253400000000     0.495280000000     0.0353105  
H99      H      0.740820000000     0.165520000000     0.506610000000     0.0352245  
H100     H      0.836930000000     0.414280000000     0.448150000000     0.0269237  
H101     H      0.612640000000     0.199830000000     0.537110000000     0.0230023  
H102     H      0.865310000000     0.290380000000     0.486480000000     0.0358806  
H103     H      0.776010000000     0.387770000000     0.483790000000     0.0351955  
H104     H      0.922260000000     0.341730000000     0.499590000000     0.0289152  
H105     H      0.688660000000     0.107250000000     0.497510000000     0.0300979  
H106     H      0.731120000000     0.257380000000     0.565110000000     0.0432053  
H107     H      0.591570000000     0.194270000000     0.485610000000     0.0309109  
H108     H      0.778350000000     0.293300000000     0.421950000000     0.0430643  
H109     H      0.654660000000     0.218340000000     0.452900000000     0.0365437  
H110     H      0.832400000000     0.440120000000     0.497630000000     0.0329599  
H111     H      0.685310000000     0.134980000000     0.545890000000     0.022802   
H112     H      0.857220000000     0.321500000000     0.532690000000     0.0390971  
H113     H      0.804950000000     0.378310000000     0.531180000000     0.0381181  
H114     H      0.724870000000     0.239320000000     0.431810000000     0.03943    
H115     H      0.710230000000     0.168220000000     0.459420000000     0.0367479  
H116     H      0.897640000000     0.347480000000     0.449550000000     0.0238971  
H117     H      0.759740000000     0.795730000000     0.449940000000     0.0435541  
H118     H      0.790110000000     0.662810000000     0.531210000000     0.0347976  
H119     H      0.887820000000     0.751650000000     0.535890000000     0.036061   
H120     H      0.637660000000     0.846960000000     0.467860000000     0.027135   
H121     H      0.845530000000     0.630710000000     0.570850000000     0.0296729  
H122     H      0.755910000000     0.886050000000     0.515900000000     0.0365747  
H123     H      0.666220000000     0.789520000000     0.506790000000     0.035383   
H124     H      0.698320000000     0.938490000000     0.525450000000     0.0284146  
H125     H      0.940640000000     0.695100000000     0.525410000000     0.0364253  
H126     H      0.812390000000     0.741540000000     0.462010000000     0.0397759  
H127     H      0.842090000000     0.605680000000     0.520880000000     0.034545   
H128     H      0.739750000000     0.805830000000     0.582760000000     0.0400697  
H129     H      0.823120000000     0.669990000000     0.486140000000     0.0370646  
H130     H      0.608540000000     0.841370000000     0.515370000000     0.0334231  
H131     H      0.912890000000     0.691780000000     0.573970000000     0.0310803  
H132     H      0.721880000000     0.875460000000     0.559500000000     0.0389514  
H133     H      0.669800000000     0.819750000000     0.554130000000     0.0384076  
H134     H      0.792520000000     0.751690000000     0.594850000000     0.0434223  
H135     H      0.880020000000     0.721740000000     0.488850000000     0.0375034  
H136     H      0.700040000000     0.914870000000     0.474710000000     0.0248657  
H137     H      0.278900000000     0.237160000000     0.418140000000     0.0422075  
H138     H      0.240780000000     0.365830000000     0.500610000000     0.0351371  
H139     H      0.143070000000     0.277560000000     0.491750000000     0.0345413  
H140     H      0.399010000000     0.183830000000     0.447260000000     0.0224751  
H141     H      0.185630000000     0.397330000000     0.539510000000     0.0231095  
H142     H      0.276710000000     0.143540000000     0.479480000000     0.0343451  
H143     H      0.366210000000     0.240630000000     0.484230000000     0.0349458  
H144     H      0.332870000000     0.090900000000     0.493750000000     0.0321253  
H145     H      0.091450000000     0.336500000000     0.481420000000     0.0289904  
H146     H      0.225110000000     0.290970000000     0.427380000000     0.0382995  
H147     H      0.188290000000     0.423770000000     0.490410000000     0.0296382  
H148     H      0.285150000000     0.220740000000     0.551710000000     0.0392189  
H149     H      0.209930000000     0.362060000000     0.453690000000     0.0358866  
H150     H      0.422850000000     0.188960000000     0.497700000000     0.0274647  
H151     H      0.112910000000     0.331850000000     0.532800000000     0.023157   
H152     H      0.305000000000     0.152600000000     0.527330000000     0.037392   
H153     H      0.357400000000     0.209120000000     0.530020000000     0.0383999  
H154     H      0.231420000000     0.274390000000     0.560870000000     0.0430178  
H155     H      0.154360000000     0.311790000000     0.448620000000     0.0355227  
H156     H      0.337970000000     0.116990000000     0.444460000000     0.0268135  
H157     H      0.299860000000     0.775980000000     0.444720000000     0.0431265  
H158     H      0.165260000000     0.741920000000     0.520310000000     0.0352985  
H159     H      0.254840000000     0.644960000000     0.523330000000     0.0354393  
H160     H      0.347870000000     0.897960000000     0.468740000000     0.027276   
H161     H      0.131600000000     0.687180000000     0.558430000000     0.0272958  
H162     H      0.388120000000     0.777660000000     0.513900000000     0.0347527  
H163     H      0.290860000000     0.866590000000     0.505590000000     0.0354781  
H164     H      0.439840000000     0.835470000000     0.526780000000     0.0345393  
H165     H      0.197810000000     0.592450000000     0.510280000000     0.0259022  
H166     H      0.245730000000     0.722550000000     0.453200000000     0.0393682  
H167     H      0.108520000000     0.689300000000     0.507440000000     0.0332711  
H168     H      0.306110000000     0.790740000000     0.578480000000     0.0398447  
H169     H      0.173230000000     0.709620000000     0.474930000000     0.0374284  
H170     H      0.342670000000     0.924020000000     0.518000000000     0.0368276  
H171     H      0.196150000000     0.617120000000     0.560490000000     0.024669   
H172     H      0.376220000000     0.810470000000     0.558020000000     0.0376443  
H173     H      0.320530000000     0.861580000000     0.553190000000     0.0382469  
H174     H      0.252090000000     0.737210000000     0.586960000000     0.0435238  
H175     H      0.224670000000     0.653980000000     0.476650000000     0.0377421  
H176     H      0.418410000000     0.833820000000     0.475080000000     0.0261521  
H177     H      0.757010000000     0.431380000000     0.243690000000     0.0429261  
H178     H      0.784880000000     0.522040000000     0.370840000000     0.0349103  
H179     H      0.881630000000     0.524820000000     0.280490000000     0.0356509  
H180     H      0.635330000000     0.444060000000     0.187010000000     0.0219911  
H181     H      0.838780000000     0.566100000000     0.399480000000     0.0244203  
H182     H      0.752950000000     0.488120000000     0.148380000000     0.0349704  
H183     H      0.661680000000     0.485640000000     0.244410000000     0.0349857  
H184     H      0.697030000000     0.493840000000     0.094270000000     0.0328467  
H185     H      0.935290000000     0.521120000000     0.337040000000     0.0278012  
H186     H      0.808920000000     0.449000000000     0.297270000000     0.0398999  
H187     H      0.837690000000     0.518110000000     0.428210000000     0.0347507  
H188     H      0.733750000000     0.562030000000     0.223160000000     0.039498   
H189     H      0.819880000000     0.478240000000     0.366480000000     0.0381161  
H190     H      0.604780000000     0.490660000000     0.191740000000     0.0272552  
H191     H      0.904970000000     0.568090000000     0.337580000000     0.0218111  
H192     H      0.719660000000     0.532910000000     0.155310000000     0.0381072  
H193     H      0.665640000000     0.531370000000     0.211890000000     0.0386061  
H194     H      0.785570000000     0.579610000000     0.276730000000     0.0430975  
H195     H      0.876250000000     0.479870000000     0.313860000000     0.0386326  
H196     H      0.695430000000     0.445980000000     0.123230000000     0.0262616  
H197     H      0.296500000000     0.436110000000     0.243900000000     0.03836    
H198     H      0.159510000000     0.502050000000     0.287940000000     0.0345284  
H199     H      0.250250000000     0.494290000000     0.383610000000     0.0351796  
H200     H      0.417310000000     0.530820000000     0.198250000000     0.0238187  
H201     H      0.124450000000     0.535300000000     0.343790000000     0.0221667  
H202     H      0.287500000000     0.500730000000     0.162070000000     0.0346602  
H203     H      0.382670000000     0.496050000000     0.253550000000     0.0353116  
H204     H      0.341920000000     0.483060000000     0.106630000000     0.0281754  
H205     H      0.191990000000     0.476460000000     0.435200000000     0.0279554  
H206     H      0.241520000000     0.436040000000     0.297530000000     0.0380696  
H207     H      0.103500000000     0.483800000000     0.341990000000     0.0249939  
H208     H      0.299910000000     0.570190000000     0.247570000000     0.0435643  
H209     H      0.167350000000     0.454400000000     0.316480000000     0.0352566  
H210     H      0.434980000000     0.478170000000     0.195730000000     0.0282029  
H211     H      0.195420000000     0.529380000000     0.418500000000     0.0230149  
H212     H      0.316940000000     0.453750000000     0.170680000000     0.0356294  
H213     H      0.370430000000     0.451060000000     0.222320000000     0.0359318  
H214     H      0.245050000000     0.570110000000     0.301330000000     0.0431597  
H215     H      0.218350000000     0.450050000000     0.370420000000     0.035458   
H216     H      0.343040000000     0.534750000000     0.127230000000     0.0235602  
H217     H      0.277900000000     0.575370000000     0.788270000000     0.0437888  
H218     H      0.148030000000     0.488620000000     0.753360000000     0.0350709  
H219     H      0.243440000000     0.485240000000     0.661510000000     0.0352029  
H220     H      0.335070000000     0.559690000000     0.909400000000     0.0255292  
H221     H      0.121900000000     0.447530000000     0.695670000000     0.0275645  
H222     H      0.369560000000     0.514930000000     0.787830000000     0.0353428  
H223     H      0.278330000000     0.517820000000     0.883690000000     0.0361404  
H224     H      0.426130000000     0.508940000000     0.841430000000     0.034757   
H225     H      0.190380000000     0.492970000000     0.604930000000     0.0285873  
H226     H      0.224850000000     0.560420000000     0.735080000000     0.0401563  
H227     H      0.093840000000     0.495860000000     0.697920000000     0.034976   
H228     H      0.293760000000     0.443800000000     0.809720000000     0.0399323  
H229     H      0.155850000000     0.533530000000     0.720370000000     0.038786   
H230     H      0.334710000000     0.511570000000     0.937870000000     0.0282431  
H231     H      0.185420000000     0.445490000000     0.634090000000     0.0238753  
H232     H      0.363920000000     0.470930000000     0.822400000000     0.0381679  
H233     H      0.311130000000     0.472570000000     0.877740000000     0.0386008  
H234     H      0.240680000000     0.428800000000     0.756460000000     0.0433377  
H235     H      0.211980000000     0.531570000000     0.666510000000     0.0390089  
H236     H      0.399030000000     0.557810000000     0.841900000000     0.0268775  
H237     H      0.741630000000     0.595620000000     0.786520000000     0.0436882  
H238     H      0.779650000000     0.523980000000     0.649520000000     0.0348088  
H239     H      0.869940000000     0.512420000000     0.745430000000     0.035973   
H240     H      0.619980000000     0.570600000000     0.842590000000     0.0302355  
H241     H      0.833980000000     0.483940000000     0.617690000000     0.0299488  
H242     H      0.743240000000     0.528150000000     0.872600000000     0.0361803  
H243     H      0.647130000000     0.535400000000     0.781910000000     0.0347483  
H244     H      0.690260000000     0.515150000000     0.928480000000     0.0362234  
H245     H      0.927140000000     0.523960000000     0.692460000000     0.0375727  
H246     H      0.795420000000     0.586690000000     0.732550000000     0.0399167  
H247     H      0.837420000000     0.535680000000     0.597060000000     0.0351043  
H248     H      0.723310000000     0.462690000000     0.790320000000     0.03941    
H249     H      0.814070000000     0.566770000000     0.661320000000     0.0373853  
H250     H      0.593460000000     0.521710000000     0.837410000000     0.033508   
H251     H      0.900100000000     0.475330000000     0.688080000000     0.0334054  
H252     H      0.710650000000     0.483380000000     0.862960000000     0.0373285  
H253     H      0.655010000000     0.487530000000     0.810230000000     0.0363277  
H254     H      0.776950000000     0.453810000000     0.736300000000     0.0435994  
H255     H      0.865720000000     0.560130000000     0.716120000000     0.0376813  
H256     H      0.687180000000     0.565950000000     0.905420000000     0.0309974  
H257     H      0.751060000000     0.739080000000     0.943950000000     0.0433697  
H258     H      0.886480000000     0.776540000000     0.021070000000     0.0363608  
H259     H      0.789680000000     0.865870000000     0.030350000000     0.0364139  
H260     H      0.692820000000     0.618390000000     0.965260000000     0.0273099  
H261     H      0.916060000000     0.831780000000     0.062120000000     0.0273342  
H262     H      0.662940000000     0.740540000000     0.009520000000     0.0324256  
H263     H      0.752780000000     0.643960000000     0.002840000000     0.0355274  
H264     H      0.606280000000     0.687930000000     0.020410000000     0.0376822  
H265     H      0.841970000000     0.923360000000     0.020650000000     0.0340766  
H266     H      0.805010000000     0.792280000000     0.955150000000     0.0393379  
H267     H      0.938900000000     0.834180000000     0.011050000000     0.03401    
H268     H      0.743270000000     0.719140000000     0.076920000000     0.0392814  
H269     H      0.875590000000     0.810560000000     0.977650000000     0.0462498  
H270     H      0.696400000000     0.590690000000     0.013770000000     0.0249248  
H271     H      0.846710000000     0.895520000000     0.068930000000     0.0266908  
H272     H      0.671140000000     0.707200000000     0.054080000000     0.0374977  
H273     H      0.723240000000     0.651200000000     0.050220000000     0.0401629  
H274     H      0.797200000000     0.772310000000     0.088100000000     0.0428951  
H275     H      0.819930000000     0.862050000000     0.983030000000     0.0465351  
H276     H      0.630250000000     0.685760000000     0.969850000000     0.0388679  
H277     H      0.740990000000     0.271380000000     0.953320000000     0.0428941  
H278     H      0.777610000000     0.144200000000     0.045680000000     0.0355771  
H279     H      0.868190000000     0.240430000000     0.042420000000     0.0368514  
H280     H      0.622510000000     0.333290000000     0.967770000000     0.0289375  
H281     H      0.836500000000     0.120090000000     0.086500000000     0.0263627  
H282     H      0.744400000000     0.365650000000     0.011180000000     0.0324968  
H283     H      0.646710000000     0.276660000000     0.010940000000     0.0316444  
H284     H      0.692130000000     0.423360000000     0.016260000000     0.0359912  
H285     H      0.925240000000     0.188070000000     0.036350000000     0.0273932  
H286     H      0.793350000000     0.218030000000     0.969610000000     0.0393504  
H287     H      0.833830000000     0.090510000000     0.038980000000     0.0299833  
H288     H      0.722120000000     0.292890000000     0.084930000000     0.0389757  
H289     H      0.809260000000     0.150370000000     0.999470000000     0.0465698  
H290     H      0.593740000000     0.333860000000     0.015870000000     0.0260542  
H291     H      0.896910000000     0.184830000000     0.084590000000     0.0232204  
H292     H      0.710250000000     0.361760000000     0.055820000000     0.0373072  
H293     H      0.653570000000     0.310090000000     0.055680000000     0.0368247  
H294     H      0.774720000000     0.239720000000     0.101250000000     0.0423043  
H295     H      0.862640000000     0.206760000000     0.997640000000     0.0476548  
H296     H      0.690210000000     0.394980000000     0.968030000000     0.0327209  
H297     H      0.294980000000     0.757420000000     0.103920000000     0.042812   
H298     H      0.164330000000     0.787020000000     0.021130000000     0.0320966  
H299     H      0.254500000000     0.883230000000     0.013170000000     0.0331953  
H300     H      0.347880000000     0.634170000000     0.086970000000     0.0241517  
H301     H      0.132870000000     0.839390000000     0.977750000000     0.0353187  
H302     H      0.386240000000     0.752390000000     0.042510000000     0.03625    
H303     H      0.289740000000     0.662120000000     0.047770000000     0.0340731  
H304     H      0.439590000000     0.696370000000     0.034620000000     0.0328899  
H305     H      0.197680000000     0.936840000000     0.019990000000     0.0296702  
H306     H      0.241790000000     0.810540000000     0.089440000000     0.0392104  
H307     H      0.107480000000     0.840130000000     0.027690000000     0.0356074  
H308     H      0.307680000000     0.734470000000     0.971770000000     0.0402403  
H309     H      0.170990000000     0.822620000000     0.064200000000     0.0371573  
H310     H      0.341980000000     0.605030000000     0.039490000000     0.0273555  
H311     H      0.196430000000     0.907560000000     0.972280000000     0.0340865  
H312     H      0.377300000000     0.719400000000     0.997760000000     0.0475913  
H313     H      0.320620000000     0.666460000000     0.000820000000     0.0357863  
H314     H      0.254360000000     0.787360000000     0.957350000000     0.043503   
H315     H      0.223110000000     0.878030000000     0.059660000000     0.0375434  
H316     H      0.412420000000     0.694860000000     0.083670000000     0.0273098  
H317     H      0.231220000000     0.250650000000     0.098480000000     0.0421551  
H318     H      0.278560000000     0.383810000000     0.028240000000     0.0322831  
H319     H      0.369340000000     0.288090000000     0.029030000000     0.0323806  
H320     H      0.113060000000     0.196420000000     0.060440000000     0.0220404  
H321     H      0.335750000000     0.415460000000     0.992970000000     0.0313181  
H322     H      0.241270000000     0.161970000000     0.037280000000     0.0358097  
H323     H      0.145800000000     0.252080000000     0.023320000000     0.035571   
H324     H      0.189580000000     0.104900000000     0.023310000000     0.02922    
H325     H      0.425110000000     0.341950000000     0.044740000000     0.0285062  
H326     H      0.285960000000     0.304030000000     0.094090000000     0.0382228  
H327     H      0.335650000000     0.436340000000     0.044730000000     0.0298551  
H328     H      0.230740000000     0.240040000000     0.964220000000     0.0384778  
H329     H      0.308640000000     0.373370000000     0.074620000000     0.0352759  
H330     H      0.093980000000     0.194780000000     0.007900000000     0.0242479  
H331     H      0.403950000000     0.343060000000     0.993000000000     0.0313389  
H332     H      0.214330000000     0.167290000000     0.988110000000     0.0455256  
H333     H      0.159820000000     0.219020000000     0.980050000000     0.0452312  
H334     H      0.285100000000     0.293830000000     0.959790000000     0.0427246  
H335     H      0.360290000000     0.319150000000     0.074990000000     0.0359301  
H336     H      0.181430000000     0.132700000000     0.071220000000     0.0204848  
H337     H      0.775830000000     0.083940000000     0.811410000000     0.0435158  
H338     H      0.638420000000     0.020160000000     0.760220000000     0.0329518  
H339     H      0.738110000000     0.019360000000     0.673430000000     0.0329683  
H340     H      0.831400000000     0.042930000000     0.929300000000     0.0363002  
H341     H      0.607920000000     0.987630000000     0.700760000000     0.0400663  
H342     H      0.859430000000     0.015580000000     0.797750000000     0.0351731  
H343     H      0.772830000000     0.010160000000     0.897470000000     0.0249204  
H344     H      0.917260000000     0.996450000000     0.847970000000     0.0448994  
H345     H      0.687130000000     0.039170000000     0.615990000000     0.0271568  
H346     H      0.722490000000     0.082870000000     0.756320000000     0.0393054  
H347     H      0.588860000000     0.040000000000     0.701430000000     0.0345809  
H348     H      0.777640000000     0.949740000000     0.812330000000     0.0393503  
H349     H      0.651940000000     0.066660000000     0.731820000000     0.0361927  
H350     H      0.832370000000     0.989940000000     0.946460000000     0.046568   
H351     H      0.683270000000     0.987010000000     0.635230000000     0.0350111  
H352     H      0.851630000000     0.967890000000     0.826320000000     0.0434748  
H353     H      0.802200000000     0.964700000000     0.882660000000     0.0334387  
H354     H      0.724310000000     0.948680000000     0.757220000000     0.0437032  
H355     H      0.708540000000     0.066190000000     0.682510000000     0.0369802  
H356     H      0.896430000000     0.047880000000     0.853420000000     0.0358293  
H357     H      0.283720000000     0.074870000000     0.712190000000     0.0380008  
H358     H      0.137840000000     0.023920000000     0.772110000000     0.03498    
H359     H      0.236530000000     0.035360000000     0.859550000000     0.0366469  
H360     H      0.335190000000     0.960240000000     0.615480000000     0.0252621  
H361     H      0.110490000000     0.066150000000     0.828220000000     0.0277778  
H362     H      0.362030000000     0.006060000000     0.737880000000     0.0367112  
H363     H      0.274990000000     0.999340000000     0.638410000000     0.0468612  
H364     H      0.420540000000     0.014210000000     0.686850000000     0.0269197  
H365     H      0.186030000000     0.028420000000     0.918560000000     0.0281355  
H366     H      0.229400000000     0.088720000000     0.764520000000     0.042643   
H367     H      0.086390000000     0.015830000000     0.830930000000     0.0316242  
H368     H      0.272800000000     0.943230000000     0.735950000000     0.0417467  
H369     H      0.149220000000     0.981140000000     0.806730000000     0.0456087  
H370     H      0.333110000000     0.007940000000     0.586460000000     0.0237912  
H371     H      0.178790000000     0.074580000000     0.887910000000     0.0243228  
H372     H      0.355920000000     0.050010000000     0.703400000000     0.0418764  
H373     H      0.305180000000     0.046150000000     0.645570000000     0.0430571  
H374     H      0.218550000000     0.957090000000     0.788360000000     0.0395531  
H375     H      0.206480000000     0.987930000000     0.857850000000     0.0471356  
H376     H      0.395000000000     0.964620000000     0.684320000000     0.0270809  
H377     H      0.264040000000     0.096850000000     0.231340000000     0.0420967  
H378     H      0.389600000000     0.006820000000     0.273340000000     0.0348326  
H379     H      0.290570000000     0.009260000000     0.361130000000     0.0322649  
H380     H      0.201710000000     0.078340000000     0.113210000000     0.0205442  
H381     H      0.413390000000     0.965450000000     0.331500000000     0.018324   
H382     H      0.168940000000     0.045610000000     0.236600000000     0.0353911  
H383     H      0.256680000000     0.033390000000     0.138160000000     0.0351918  
H384     H      0.110040000000     0.042300000000     0.185780000000     0.0286137  
H385     H      0.341790000000     0.015130000000     0.419670000000     0.035985   
H386     H      0.316360000000     0.081130000000     0.285080000000     0.0387026  
H387     H      0.441710000000     0.013620000000     0.331690000000     0.0152494  
H388     H      0.239090000000     0.965760000000     0.216920000000     0.0385413  
H389     H      0.382270000000     0.052230000000     0.305620000000     0.0394089  
H390     H      0.198740000000     0.029580000000     0.085900000000     0.0270172  
H391     H      0.344290000000     0.966600000000     0.392030000000     0.0322131  
H392     H      0.169420000000     0.998580000000     0.205770000000     0.0453744  
H393     H      0.220590000000     0.991450000000     0.148270000000     0.0452212  
H394     H      0.291760000000     0.949980000000     0.270430000000     0.042583   
H395     H      0.324920000000     0.053540000000     0.356760000000     0.0373717  
H396     H      0.143410000000     0.086610000000     0.178670000000     0.0199482  
H397     H      0.797600000000     0.956110000000     0.269310000000     0.0431294  
H398     H      0.667710000000     0.043570000000     0.294950000000     0.0355109  
H399     H      0.754660000000     0.048550000000     0.394750000000     0.0342065  
H400     H      0.847500000000     0.967980000000     0.146100000000     0.0323804  
H401     H      0.637360000000     0.085860000000     0.349740000000     0.0196797  
H402     H      0.891660000000     0.017520000000     0.261820000000     0.0331408  
H403     H      0.792290000000     0.010170000000     0.174750000000     0.0319475  
H404     H      0.943180000000     0.023210000000     0.202520000000     0.028033   
H405     H      0.696730000000     0.041900000000     0.446590000000     0.0304971  
H406     H      0.743410000000     0.972030000000     0.321140000000     0.0396594  
H407     H      0.608680000000     0.038010000000     0.345380000000     0.0275222  
H408     H      0.813800000000     0.087240000000     0.245660000000     0.0391126  
H409     H      0.672480000000     0.999240000000     0.329250000000     0.0460689  
H410     H      0.842900000000     0.014600000000     0.115650000000     0.0360614  
H411     H      0.694250000000     0.088720000000     0.416090000000     0.020333   
H412     H      0.882050000000     0.060450000000     0.226850000000     0.0374099  
H413     H      0.824740000000     0.056020000000     0.176140000000     0.0374161  
H414     H      0.759600000000     0.103170000000     0.297530000000     0.0422028  
H415     H      0.723830000000     0.002070000000     0.387790000000     0.0350831  
H416     H      0.917410000000     0.973790000000     0.206350000000     0.030741   
H417     H      0.082940000000     0.275650000000     0.741060000000     0.0432159  
H418     H      0.996590000000     0.148620000000     0.781720000000     0.047008   
H419     H      0.000120000000     0.244110000000     0.873100000000     0.037385   
H420     H      0.059850000000     0.333530000000     0.620610000000     0.0236313  
H421     H      0.957090000000     0.122850000000     0.840350000000     0.0254486  
H422     H      0.024890000000     0.367340000000     0.745110000000     0.0363582  
H423     H      0.019210000000     0.276960000000     0.648730000000     0.0357353  
H424     H      0.016640000000     0.424210000000     0.692830000000     0.0330535  
H425     H      0.009570000000     0.190790000000     0.929450000000     0.0202021  
H426     H      0.070190000000     0.223720000000     0.795770000000     0.0380982  
H427     H      0.005460000000     0.094810000000     0.837190000000     0.0250256  
H428     H      0.950180000000     0.293270000000     0.727040000000     0.0394398  
H429     H      0.043010000000     0.155460000000     0.812960000000     0.042718   
H430     H      0.009740000000     0.333520000000     0.595490000000     0.0250476  
H431     H      0.959830000000     0.188570000000     0.903680000000     0.0238483  
H432     H      0.978140000000     0.362820000000     0.713940000000     0.046667   
H433     H      0.974730000000     0.310120000000     0.658150000000     0.0462756  
H434     H      0.937430000000     0.241300000000     0.781710000000     0.0419753  
H435     H      0.045110000000     0.211070000000     0.865950000000     0.0416418  
H436     H      0.064340000000     0.395360000000     0.687560000000     0.0276297  
H437     H      0.943940000000     0.724810000000     0.741200000000     0.0370686  
H438     H      0.998740000000     0.780390000000     0.884950000000     0.0476092  
H439     H      0.994280000000     0.871070000000     0.788940000000     0.0472957  
H440     H      0.052310000000     0.616900000000     0.698110000000     0.0317568  
H441     H      0.960380000000     0.838220000000     0.913880000000     0.0263263  
H442     H      0.014520000000     0.741780000000     0.662460000000     0.0358924  
H443     H      0.012880000000     0.646840000000     0.754200000000     0.0358281  
H444     H      0.004210000000     0.687890000000     0.606310000000     0.0331983  
H445     H      0.006300000000     0.927620000000     0.841690000000     0.0264515  
H446     H      0.933660000000     0.779160000000     0.794260000000     0.046173   
H447     H      0.010760000000     0.836360000000     0.938170000000     0.0262794  
H448     H      0.077260000000     0.739590000000     0.751910000000     0.0412679  
H449     H      0.044070000000     0.812060000000     0.874750000000     0.0437961  
H450     H      0.001750000000     0.593120000000     0.697370000000     0.0327734  
H451     H      0.957270000000     0.901250000000     0.847220000000     0.0270496  
H452     H      0.968780000000     0.709790000000     0.669050000000     0.045517   
H453     H      0.967760000000     0.655520000000     0.721770000000     0.0449037  
H454     H      0.067000000000     0.794070000000     0.804740000000     0.0430663  
H455     H      0.041470000000     0.864730000000     0.818930000000     0.0436341  
H456     H      0.054040000000     0.686340000000     0.631690000000     0.0298977  
H457     H      0.110130000000     0.787590000000     0.251110000000     0.0449581  
H458     H      0.022540000000     0.662230000000     0.289200000000     0.0323487  
H459     H      0.030020000000     0.753180000000     0.384760000000     0.0328306  
H460     H      0.086570000000     0.841600000000     0.129010000000     0.0270389  
H461     H      0.981980000000     0.634120000000     0.345470000000     0.0289765  
H462     H      0.051400000000     0.880800000000     0.250510000000     0.0345669  
H463     H      0.047900000000     0.784620000000     0.159770000000     0.0334592  
H464     H      0.041200000000     0.934210000000     0.195120000000     0.026072   
H465     H      0.038350000000     0.696230000000     0.438410000000     0.034915   
H466     H      0.097500000000     0.735990000000     0.306270000000     0.0368623  
H467     H      0.030080000000     0.605690000000     0.342600000000     0.0265026  
H468     H      0.977340000000     0.805410000000     0.237630000000     0.0533251  
H469     H      0.068950000000     0.666140000000     0.320880000000     0.0374309  
H470     H      0.037020000000     0.837110000000     0.103170000000     0.0315571  
H471     H      0.987820000000     0.699060000000     0.414440000000     0.0333447  
H472     H      0.004310000000     0.873230000000     0.220480000000     0.0350229  
H473     H      0.002200000000     0.816600000000     0.167290000000     0.0342617  
H474     H      0.964760000000     0.753990000000     0.292820000000     0.037565   
H475     H      0.073350000000     0.718500000000     0.375620000000     0.0369232  
H476     H      0.089230000000     0.905840000000     0.190110000000     0.0232968  
H477     H      0.964080000000     0.291580000000     0.280790000000     0.0372197  
H478     H      0.043360000000     0.157520000000     0.246010000000     0.0353864  
H479     H      0.044620000000     0.248140000000     0.149800000000     0.0354221  
H480     H      0.986690000000     0.342710000000     0.401970000000     0.0310774  
H481     H      0.081700000000     0.126830000000     0.189060000000     0.0200693  
H482     H      0.030690000000     0.382040000000     0.280130000000     0.0323109  
H483     H      0.025940000000     0.287010000000     0.371630000000     0.0324077  
H484     H      0.041970000000     0.435420000000     0.337540000000     0.0281834  
H485     H      0.035530000000     0.192710000000     0.095880000000     0.0296823  
H486     H      0.973830000000     0.236730000000     0.228170000000     0.0515401  
H487     H      0.032130000000     0.101100000000     0.192900000000     0.024817   
H488     H      0.097540000000     0.302180000000     0.294510000000     0.0358789  
H489     H      0.997440000000     0.165030000000     0.214320000000     0.0454287  
H490     H      0.036090000000     0.340750000000     0.428000000000     0.0315059  
H491     H      0.083560000000     0.188900000000     0.124720000000     0.021192   
H492     H      0.075040000000     0.372450000000     0.313360000000     0.0351535  
H493     H      0.072190000000     0.318420000000     0.365870000000     0.0355311  
H494     H      0.107280000000     0.247380000000     0.241840000000     0.0443167  
H495     H      0.998340000000     0.217220000000     0.158100000000     0.0454358  
H496     H      0.990920000000     0.412930000000     0.335250000000     0.0308074  
N1       N      0.535400000000     0.139920000000     0.388420000000    -0.234302   
N2       N      0.536000000000     0.201350000000     0.324620000000    -0.111242   
N3       N      0.491490000000     0.322130000000     0.200780000000    -0.111313   
N4       N      0.493740000000     0.385870000000     0.139250000000    -0.235701   
N5       N      0.512400000000     0.637180000000     0.149970000000    -0.21859    
N6       N      0.509140000000     0.697110000000     0.213880000000    -0.111561   
N7       N      0.547270000000     0.822620000000     0.333150000000    -0.111555   
N8       N      0.541420000000     0.886330000000     0.393140000000    -0.225459   
N9       N      0.512440000000     0.892780000000     0.644330000000    -0.199332   
N10      N      0.522320000000     0.832630000000     0.708220000000    -0.111416   
N11      N      0.508080000000     0.707940000000     0.835190000000    -0.111385   
N12      N      0.517810000000     0.644840000000     0.896130000000    -0.199589   
N13      N      0.495230000000     0.394410000000     0.885300000000    -0.226409   
N14      N      0.487250000000     0.334420000000     0.821830000000    -0.111413   
N15      N      0.519710000000     0.209360000000     0.700490000000    -0.111559   
N16      N      0.514700000000     0.145710000000     0.640530000000    -0.218361   
N17      N      0.635270000000     0.147160000000     0.504570000000    -0.234397   
N18      N      0.693720000000     0.212230000000     0.506790000000    -0.110483   
N19      N      0.817920000000     0.336480000000     0.480720000000    -0.111196   
N20      N      0.882330000000     0.395370000000     0.492190000000    -0.225154   
N21      N      0.895620000000     0.645370000000     0.530410000000    -0.206227   
N22      N      0.836220000000     0.710030000000     0.537970000000    -0.111922   
N23      N      0.714090000000     0.835430000000     0.506610000000    -0.110978   
N24      N      0.649250000000     0.894750000000     0.511730000000    -0.224046   
N25      N      0.135100000000     0.384020000000     0.499140000000    -0.234659   
N26      N      0.193860000000     0.318950000000     0.502050000000    -0.110472   
N27      N      0.318770000000     0.194770000000     0.477370000000    -0.111419   
N28      N      0.382990000000     0.135450000000     0.489070000000    -0.22411    
N29      N      0.148140000000     0.636570000000     0.519580000000    -0.225245   
N30      N      0.212390000000     0.695730000000     0.527290000000    -0.110876   
N31      N      0.337520000000     0.819470000000     0.504260000000    -0.111874   
N32      N      0.396290000000     0.884140000000     0.511470000000    -0.207706   
N33      N      0.890340000000     0.526940000000     0.387010000000    -0.225309   
N34      N      0.830430000000     0.527540000000     0.322730000000    -0.111559   
N35      N      0.710460000000     0.483510000000     0.199300000000    -0.111613   
N36      N      0.646720000000     0.487600000000     0.138830000000    -0.226359   
N37      N      0.143410000000     0.496900000000     0.394020000000    -0.23808    
N38      N      0.206830000000     0.504980000000     0.334500000000    -0.110158   
N39      N      0.333670000000     0.505160000000     0.209670000000    -0.110145   
N40      N      0.393660000000     0.497080000000     0.146660000000    -0.234676   
N41      N      0.137810000000     0.489170000000     0.647090000000    -0.218659   
N42      N      0.198490000000     0.483130000000     0.710430000000    -0.111688   
N43      N      0.321260000000     0.521110000000     0.833080000000    -0.111044   
N44      N      0.384800000000     0.519390000000     0.893610000000    -0.225275   
N45      N      0.886230000000     0.517790000000     0.639550000000    -0.201166   
N46      N      0.822030000000     0.512590000000     0.699410000000    -0.111734   
N47      N      0.697850000000     0.536580000000     0.824780000000    -0.111762   
N48      N      0.637410000000     0.526280000000     0.888220000000    -0.206598   
N49      N      0.895400000000     0.882990000000     0.026120000000    -0.206844   
N50      N      0.835800000000     0.818220000000     0.030800000000    -0.108607   
N51      N      0.710550000000     0.695040000000     0.001480000000    -0.1117     
N52      N      0.646170000000     0.635060000000     0.008860000000    -0.204641   
N53      N      0.884020000000     0.135180000000     0.043220000000    -0.22509    
N54      N      0.819870000000     0.195270000000     0.047760000000    -0.108307   
N55      N      0.698280000000     0.318150000000     0.006680000000    -0.112909   
N56      N      0.638930000000     0.383010000000     0.007820000000    -0.222325   
N57      N      0.147880000000     0.892150000000     0.014270000000    -0.221416   
N58      N      0.211960000000     0.832380000000     0.012280000000    -0.112482   
N59      N      0.335330000000     0.710310000000     0.049020000000    -0.109737   
N60      N      0.395150000000     0.646350000000     0.042540000000    -0.218687   
N61      N      0.385400000000     0.393860000000     0.030740000000    -0.235003   
N62      N      0.321890000000     0.333950000000     0.022360000000    -0.111511   
N63      N      0.195250000000     0.209730000000     0.035980000000    -0.107736   
N64      N      0.136040000000     0.145590000000     0.025480000000    -0.233571   
N65      N      0.633020000000     0.025800000000     0.653110000000    -0.213874   
N66      N      0.689900000000     0.013410000000     0.718780000000    -0.11196    
N67      N      0.814000000000     0.019250000000     0.846160000000    -0.115169   
N68      N      0.880010000000     0.007130000000     0.902690000000    -0.197928   
N69      N      0.131440000000     0.029600000000     0.878990000000    -0.215858   
N70      N      0.189670000000     0.033870000000     0.812460000000    -0.108773   
N71      N      0.315530000000     0.998380000000     0.691020000000    -0.0970644  
N72      N      0.381910000000     0.003490000000     0.632640000000    -0.211472   
N73      N      0.395760000000     0.006130000000     0.380310000000    -0.22801    
N74      N      0.337320000000     0.003640000000     0.314230000000    -0.11122    
N75      N      0.216210000000     0.043450000000     0.189890000000    -0.108388   
N76      N      0.150280000000     0.041330000000     0.131430000000    -0.23634    
N77      N      0.647970000000     0.044620000000     0.399940000000    -0.237178   
N78      N      0.714400000000     0.049630000000     0.341910000000    -0.10951    
N79      N      0.839450000000     0.009390000000     0.221560000000    -0.112627   
N80      N      0.897470000000     0.010080000000     0.155010000000    -0.220662   
N81      N      0.999960000000     0.138720000000     0.888020000000    -0.215895   
N82      N      0.993790000000     0.198960000000     0.824870000000    -0.0965976  
N83      N      0.026630000000     0.319350000000     0.699260000000    -0.108564   
N84      N      0.020730000000     0.383060000000     0.639590000000    -0.220215   
N85      N      0.000680000000     0.886780000000     0.894810000000    -0.211183   
N86      N      0.991900000000     0.822780000000     0.834350000000    -0.101998   
N87      N      0.019100000000     0.696780000000     0.711020000000    -0.107792   
N88      N      0.014630000000     0.635860000000     0.647340000000    -0.200733   
N89      N      0.023530000000     0.647160000000     0.395120000000    -0.22389    
N90      N      0.021060000000     0.710450000000     0.334790000000    -0.111128   
N91      N      0.053610000000     0.829960000000     0.207910000000    -0.113768   
N92      N      0.044360000000     0.889820000000     0.144410000000    -0.225349   
N93      N      0.040270000000     0.141970000000     0.140000000000    -0.235285   
N94      N      0.048630000000     0.205610000000     0.200590000000    -0.110901   
N95      N      0.022670000000     0.332240000000     0.323200000000    -0.110374   
N96      N      0.026750000000     0.392880000000     0.386950000000    -0.234234   
O1       O      0.026900000000     0.123050000000     0.071010000000    -1.03054    
O2       O      0.030510000000     0.905530000000     0.074790000000    -0.7874     
O3       O      0.966450000000     0.012960000000     0.130930000000    -0.991508   
O4       O      0.079700000000     0.029230000000     0.119440000000    -1.05936    
O5       O      0.127400000000     0.029550000000     0.063510000000    -1.03386    
O6       O      0.909800000000     0.011760000000     0.083430000000    -0.794013   
O7       O      0.031140000000     0.958630000000     0.126020000000    -1.01281    
O8       O      0.030510000000     0.072060000000     0.123650000000    -1.0534     
O9       O      0.066180000000     0.977240000000     0.058610000000    -2.05235    
O10      O      0.977180000000     0.058100000000     0.065450000000    -2.05768    
O11      O      0.976710000000     0.967800000000     0.069130000000    -0.859379   
O12      O      0.024640000000     0.023760000000     0.025230000000    -2.54662    
O13      O      0.011350000000     0.906230000000     0.964310000000    -0.708343   
O14      O      0.007410000000     0.121940000000     0.958510000000    -0.917207   
O15      O      0.910200000000     0.954140000000     0.025840000000    -0.737561   
O16      O      0.126820000000     0.961670000000     0.012580000000    -0.934275   
O17      O      0.120880000000     0.075020000000     0.019030000000    -1.03241    
O18      O      0.904370000000     0.066040000000     0.034460000000    -0.768588   
O19      O      0.951580000000     0.010400000000     0.914720000000    -0.589663   
O20      O      0.063070000000     0.020070000000     0.902670000000    -0.627336   
O21      O      0.903750000000     0.007140000000     0.971780000000    -0.710887   
O22      O      0.118950000000     0.024350000000     0.950670000000    -0.925582   
O23      O      0.965150000000     0.904000000000     0.022460000000    -0.730382   
O24      O      0.953810000000     0.120340000000     0.028770000000    -0.934596   
O25      O      0.066710000000     0.124680000000     0.020460000000    -1.02685    
O26      O      0.077130000000     0.907640000000     0.018930000000    -0.7721     
O27      O      0.007180000000     0.957550000000     0.910690000000    -0.58629    
O28      O      0.006260000000     0.069300000000     0.906890000000    -0.639185   
O29      O      0.054370000000     0.060480000000     0.973590000000    -1.95367    
O30      O      0.976070000000     0.974430000000     0.982770000000    -1.58388    
O31      O      0.963940000000     0.055050000000     0.976190000000    -1.24319    
O32      O      0.057130000000     0.970070000000     0.968860000000    -1.23417    
O33      O      0.021430000000     0.408900000000     0.457470000000    -1.05417    
O34      O      0.023880000000     0.626870000000     0.464950000000    -0.784283   
O35      O      0.960040000000     0.522050000000     0.407230000000    -1.00869    
O36      O      0.073410000000     0.506670000000     0.410650000000    -1.07758    
O37      O      0.124000000000     0.501560000000     0.463790000000    -1.07638    
O38      O      0.906060000000     0.521040000000     0.457740000000    -0.801538   
O39      O      0.020910000000     0.576560000000     0.410990000000    -1.02125    
O40      O      0.023590000000     0.462500000000     0.407380000000    -1.06238    
O41      O      0.063580000000     0.554320000000     0.474800000000    -2.09397    
O42      O      0.974040000000     0.473600000000     0.469290000000    -2.0919     
O43      O      0.973450000000     0.563770000000     0.470810000000    -0.864043   
O44      O      0.023850000000     0.505830000000     0.508320000000    -2.58099    
O45      O      0.016450000000     0.619830000000     0.576260000000    -0.706563   
O46      O      0.014140000000     0.403900000000     0.570180000000    -0.942518   
O47      O      0.909920000000     0.574900000000     0.520080000000    -0.74662    
O48      O      0.126880000000     0.567120000000     0.518580000000    -0.969671   
O49      O      0.120360000000     0.454400000000     0.507410000000    -1.06347    
O50      O      0.903190000000     0.463950000000     0.503630000000    -0.78068    
O51      O      0.957140000000     0.513280000000     0.623600000000    -0.587439   
O52      O      0.068910000000     0.502230000000     0.628220000000    -0.62914    
O53      O      0.906310000000     0.519450000000     0.569510000000    -0.727098   
O54      O      0.121990000000     0.500740000000     0.576950000000    -0.952973   
O55      O      0.965110000000     0.624780000000     0.523230000000    -0.723103   
O56      O      0.952590000000     0.409370000000     0.505080000000    -0.951073   
O57      O      0.065840000000     0.405210000000     0.503760000000    -1.0441     
O58      O      0.077130000000     0.621400000000     0.516850000000    -0.768429   
O59      O      0.014510000000     0.565770000000     0.627270000000    -0.585715   
O60      O      0.015150000000     0.453530000000     0.624680000000    -0.634522   
O61      O      0.056410000000     0.466720000000     0.555770000000    -2.01125    
O62      O      0.978120000000     0.552690000000     0.556250000000    -1.59813    
O63      O      0.966090000000     0.471540000000     0.559470000000    -1.26344    
O64      O      0.059810000000     0.556280000000     0.565440000000    -1.24004    
O65      O      0.626280000000     0.032440000000     0.468080000000    -1.05368    
O66      O      0.409010000000     0.011040000000     0.451620000000    -0.784039   
O67      O      0.529460000000     0.956200000000     0.408970000000    -1.00714    
O68      O      0.528150000000     0.070240000000     0.407390000000    -1.05257    
O69      O      0.524390000000     0.122890000000     0.458340000000    -1.04064    
O70      O      0.529560000000     0.905040000000     0.462210000000    -0.802201   
O71      O      0.464960000000     0.009990000000     0.403290000000    -1.00435    
O72      O      0.578210000000     0.028530000000     0.412600000000    -1.06491    
O73      O      0.476320000000     0.057830000000     0.467000000000    -2.08466    
O74      O      0.565770000000     0.977640000000     0.474930000000    -2.08409    
O75      O      0.476240000000     0.967600000000     0.466460000000    -0.869426   
O76      O      0.524490000000     0.024900000000     0.507550000000    -2.56429    
O77      O      0.404570000000     0.008090000000     0.563340000000    -0.711189   
O78      O      0.619780000000     0.024780000000     0.581360000000    -0.930441   
O79      O      0.465820000000     0.905380000000     0.515190000000    -0.753002   
O80      O      0.452980000000     0.121240000000     0.503350000000    -0.956097   
O81      O      0.566080000000     0.125660000000     0.506460000000    -1.05137    
O82      O      0.578100000000     0.909480000000     0.514500000000    -0.776452   
O83      O      0.510680000000     0.962850000000     0.624910000000    -0.57659    
O84      O      0.510550000000     0.075200000000     0.624420000000    -0.628199   
O85      O      0.515290000000     0.909570000000     0.573210000000    -0.718808   
O86      O      0.511670000000     0.125690000000     0.570710000000    -0.949512   
O87      O      0.410640000000     0.955200000000     0.510550000000    -0.732861   
O88      O      0.627560000000     0.963960000000     0.517810000000    -0.94236    
O89      O      0.620650000000     0.076830000000     0.512980000000    -1.04416    
O90      O      0.403830000000     0.066570000000     0.499290000000    -0.763344   
O91      O      0.452920000000     0.013640000000     0.619690000000    -0.588559   
O92      O      0.564160000000     0.023830000000     0.629960000000    -0.624961   
O93      O      0.554920000000     0.063250000000     0.557480000000    -1.98815    
O94      O      0.476960000000     0.976760000000     0.552490000000    -1.59494    
O95      O      0.558120000000     0.973280000000     0.564980000000    -1.257      
O96      O      0.464360000000     0.057880000000     0.556920000000    -1.24032    
O97      O      0.405850000000     0.463300000000     0.028000000000    -1.05158    
O98      O      0.624090000000     0.453810000000     0.012830000000    -0.781802   
O99      O      0.506200000000     0.409470000000     0.955560000000    -1.01536    
O100     O      0.503680000000     0.405800000000     0.069830000000    -1.05738    
O101     O      0.505670000000     0.455580000000     0.123700000000    -1.06188    
O102     O      0.505340000000     0.463350000000     0.905140000000    -0.804973   
O103     O      0.569350000000     0.404330000000     0.011040000000    -1.01456    
O104     O      0.455900000000     0.409700000000     0.024630000000    -1.07138    
O105     O      0.555590000000     0.466410000000     0.059500000000    -2.09315    
O106     O      0.467460000000     0.473850000000     0.977380000000    -2.0948     
O107     O      0.557380000000     0.467870000000     0.968720000000    -0.863435   
O108     O      0.506940000000     0.506220000000     0.026560000000    -2.58115    
O109     O      0.625540000000     0.565360000000     0.012880000000    -0.704277   
O110     O      0.409920000000     0.576190000000     0.031000000000    -0.9419     
O111     O      0.567510000000     0.519970000000     0.907820000000    -0.751188   
O112     O      0.576780000000     0.500970000000     0.124050000000    -0.972613   
O113     O      0.463400000000     0.502470000000     0.126960000000    -1.04961    
O114     O      0.455470000000     0.516110000000     0.909790000000    -0.787559   
O115     O      0.518090000000     0.624760000000     0.966500000000    -0.576072   
O116     O      0.517580000000     0.622080000000     0.079210000000    -0.632824   
O117     O      0.516630000000     0.573990000000     0.912170000000    -0.724563   
O118     O      0.517080000000     0.567760000000     0.129050000000    -0.951122   
O119     O      0.621950000000     0.515800000000     0.958620000000    -0.725479   
O120     O      0.405040000000     0.518520000000     0.963610000000    -0.95132    
O121     O      0.409830000000     0.505740000000     0.076500000000    -1.0602     
O122     O      0.626910000000     0.499920000000     0.069930000000    -0.765947   
O123     O      0.575500000000     0.620070000000     0.018230000000    -0.591453   
O124     O      0.463820000000     0.626430000000     0.029900000000    -0.628467   
O125     O      0.474730000000     0.554070000000     0.065490000000    -2.01049    
O126     O      0.553940000000     0.553250000000     0.980040000000    -1.60203    
O127     O      0.472570000000     0.563790000000     0.975520000000    -1.25905    
O128     O      0.565200000000     0.556230000000     0.061580000000    -1.23579    
Tb1      Tb     0.020750000000     0.014620000000     0.088100000000     6.26794    
Tb2      Tb     0.020220000000     0.944850000000     0.020510000000     4.28474    
Tb3      Tb     0.011370000000     0.085010000000     0.016430000000     6.10284    
Tb4      Tb     0.945920000000     0.012510000000     0.026130000000     4.32526    
Tb5      Tb     0.086090000000     0.016940000000     0.010710000000     6.14386    
Tb6      Tb     0.011470000000     0.015430000000     0.947420000000     3.17094    
Tb7      Tb     0.016360000000     0.518240000000     0.446450000000     6.3448     
Tb8      Tb     0.020040000000     0.584260000000     0.517570000000     4.24686    
Tb9      Tb     0.010950000000     0.444180000000     0.514670000000     6.2473     
Tb10     Tb     0.945300000000     0.516800000000     0.512910000000     4.41015    
Tb11     Tb     0.086060000000     0.511990000000     0.519400000000     6.42112    
Tb12     Tb     0.015200000000     0.509870000000     0.587180000000     3.15802    
Tb13     Tb     0.519790000000     0.013800000000     0.445070000000     6.3039     
Tb14     Tb     0.445940000000     0.013570000000     0.508450000000     4.27489    
Tb15     Tb     0.586210000000     0.018770000000     0.521380000000     6.24724    
Tb16     Tb     0.520700000000     0.946290000000     0.515000000000     4.40631    
Tb17     Tb     0.511080000000     0.086380000000     0.514580000000     6.28267    
Tb18     Tb     0.512460000000     0.019260000000     0.585920000000     3.12316    
Tb19     Tb     0.513590000000     0.444460000000     0.014040000000     6.3327     
Tb20     Tb     0.585640000000     0.509440000000     0.016360000000     4.24099    
Tb21     Tb     0.445050000000     0.518350000000     0.019570000000     6.2917     
Tb22     Tb     0.511940000000     0.515510000000     0.947780000000     4.42755    
Tb23     Tb     0.519140000000     0.512290000000     0.088590000000     6.37505    
Tb24     Tb     0.516940000000     0.584700000000     0.022610000000     3.14665    


