data_structure

_audit_creation_method RASPA-1.0
_audit_creation_date 2023-5-25
_audit_author_name 'Poobodin Mano'

_cell_length_a    31.9416
_cell_length_b    32.1834
_cell_length_c    32.0028
_cell_angle_alpha 90
_cell_angle_beta  90
_cell_angle_gamma 90
_cell_volume      32898.5

_symmetry_cell_setting          triclinic
_symmetry_space_group_name_Hall 'P 1'
_symmetry_space_group_name_H-M  'P 1'
_symmetry_Int_Tables_number     1

_symmetry_equiv_pos_as_xyz 'x,y,z'

loop_
_atom_site_label
_atom_site_type_symbol
_atom_site_fract_x
_atom_site_fract_y
_atom_site_fract_z
_atom_site_charge
C1       C      0.020690000000     0.101910000000     0.100220000000     0.722487   
C2       C      0.012600000000     0.908210000000     0.107520000000     0.683075   
C3       C      0.912310000000     0.006680000000     0.108700000000     0.674278   
C4       C      0.107120000000     0.021970000000     0.098130000000     0.726922   
C5       C      0.001430000000     0.905160000000     0.915290000000     0.566274   
C6       C      0.010080000000     0.096440000000     0.907060000000     0.654464   
C7       C      0.911740000000     0.907410000000     0.011010000000     0.592529   
C8       C      0.104970000000     0.906480000000     0.017870000000     0.689751   
C9       C      0.103200000000     0.098760000000     0.012910000000     0.720039   
C10      C      0.909730000000     0.099280000000     0.018580000000     0.692427   
C11      C      0.908110000000     0.995750000000     0.916540000000     0.568235   
C12      C      0.101370000000     0.005020000000     0.905850000000     0.642642   
C13      C      0.009020000000     0.411720000000     0.409240000000     0.737575   
C14      C      0.024060000000     0.604350000000     0.415380000000     0.680449   
C15      C      0.909230000000     0.518650000000     0.412620000000     0.685311   
C16      C      0.101020000000     0.484980000000     0.411190000000     0.741772   
C17      C      0.015780000000     0.595740000000     0.607300000000     0.568016   
C18      C      0.001020000000     0.404840000000     0.602980000000     0.638436   
C19      C      0.922430000000     0.608970000000     0.516830000000     0.593793   
C20      C      0.114930000000     0.591710000000     0.505160000000     0.693347   
C21      C      0.093460000000     0.399850000000     0.492660000000     0.726004   
C22      C      0.900410000000     0.418820000000     0.495850000000     0.696092   
C23      C      0.914050000000     0.515700000000     0.604770000000     0.568058   
C24      C      0.105020000000     0.486520000000     0.605590000000     0.654248   
C25      C      0.607300000000     0.033000000000     0.417590000000     0.71059    
C26      C      0.415160000000     0.000920000000     0.403910000000     0.653088   
C27      C      0.526730000000     0.912900000000     0.404590000000     0.672463   
C28      C      0.516970000000     0.106060000000     0.417000000000     0.712959   
C29      C      0.408850000000     0.985450000000     0.595960000000     0.569518   
C30      C      0.599190000000     0.015750000000     0.610060000000     0.644793   
C31      C      0.422520000000     0.900260000000     0.497220000000     0.5931     
C32      C      0.400690000000     0.091030000000     0.499650000000     0.677089   
C33      C      0.594380000000     0.109050000000     0.503670000000     0.700426   
C34      C      0.615380000000     0.917240000000     0.499670000000     0.673296   
C35      C      0.507190000000     0.904380000000     0.596120000000     0.578391   
C36      C      0.497440000000     0.095370000000     0.609490000000     0.64267    
C37      C      0.410950000000     0.408700000000     0.000620000000     0.710412   
C38      C      0.410570000000     0.601720000000     0.993490000000     0.668257   
C39      C      0.407970000000     0.510730000000     0.103880000000     0.669342   
C40      C      0.414050000000     0.481260000000     0.911600000000     0.72278    
C41      C      0.602620000000     0.598950000000     0.010160000000     0.558833   
C42      C      0.604440000000     0.407010000000     0.006910000000     0.646216   
C43      C      0.507420000000     0.605110000000     0.097310000000     0.582065   
C44      C      0.503510000000     0.596320000000     0.904680000000     0.679907   
C45      C      0.496880000000     0.403920000000     0.917070000000     0.727792   
C46      C      0.496070000000     0.413500000000     0.110560000000     0.688613   
C47      C      0.600640000000     0.511530000000     0.104310000000     0.572121   
C48      C      0.607260000000     0.492000000000     0.912580000000     0.657484   
C49      C      0.500480000000     0.368490000000     0.217390000000    -0.0439811  
C50      C      0.513740000000     0.162230000000     0.316190000000    -0.0456704  
C51      C      0.527530000000     0.181240000000     0.404120000000     0.0325566  
C52      C      0.532680000000     0.129240000000     0.344920000000     0.0333854  
C53      C      0.473470000000     0.244680000000     0.289980000000    -0.056543   
C54      C      0.538710000000     0.287970000000     0.251130000000    -0.0565097  
C55      C      0.515260000000     0.235810000000     0.300860000000     0.0600819  
C56      C      0.509240000000     0.212270000000     0.372740000000    -0.0453497  
C57      C      0.496940000000     0.296600000000     0.239970000000     0.0604511  
C58      C      0.502020000000     0.312790000000     0.166370000000    -0.0908341  
C59      C      0.464540000000     0.274840000000     0.259790000000    -0.0538535  
C60      C      0.483820000000     0.340730000000     0.132030000000     0.201319   
C61      C      0.482730000000     0.399220000000     0.185370000000     0.0321181  
C62      C      0.547630000000     0.257850000000     0.281340000000    -0.054697   
C63      C      0.522140000000     0.867980000000     0.297770000000    -0.0461189  
C64      C      0.520040000000     0.661640000000     0.198740000000    -0.0404889  
C65      C      0.503490000000     0.680350000000     0.111070000000     0.0187995  
C66      C      0.502160000000     0.627530000000     0.170700000000     0.0199286  
C67      C      0.480970000000     0.754820000000     0.234320000000    -0.0546706  
C68      C      0.563190000000     0.776820000000     0.254580000000    -0.0535868  
C69      C      0.514360000000     0.734880000000     0.214220000000     0.0604753  
C70      C      0.521230000000     0.711650000000     0.142410000000    -0.0402383  
C71      C      0.529810000000     0.796500000000     0.274930000000     0.0607889  
C72      C      0.525160000000     0.812260000000     0.348650000000    -0.0891092  
C73      C      0.488480000000     0.785350000000     0.264470000000    -0.0564867  
C74      C      0.542880000000     0.841030000000     0.382510000000     0.194869   
C75      C      0.538830000000     0.899650000000     0.329390000000     0.0376444  
C76      C      0.555680000000     0.746220000000     0.224480000000    -0.056538   
C77      C      0.505020000000     0.848060000000     0.698010000000    -0.04079    
C78      C      0.495900000000     0.642430000000     0.797160000000    -0.0458342  
C79      C      0.508100000000     0.669490000000     0.883410000000     0.0239596  
C80      C      0.510630000000     0.610630000000     0.829520000000     0.0339686  
C81      C      0.465890000000     0.725110000000     0.760690000000    -0.0564308  
C82      C      0.537060000000     0.763440000000     0.727320000000    -0.0563616  
C83      C      0.505880000000     0.713820000000     0.775320000000     0.0607454  
C84      C      0.493310000000     0.697770000000     0.848050000000    -0.0420094  
C85      C      0.497060000000     0.775010000000     0.712950000000     0.0609771  
C86      C      0.511260000000     0.797820000000     0.642100000000    -0.0873334  
C87      C      0.461660000000     0.755460000000     0.729740000000    -0.0534826  
C88      C      0.497240000000     0.829390000000     0.608930000000     0.190948   
C89      C      0.491020000000     0.882250000000     0.667990000000     0.0228787  
C90      C      0.541280000000     0.733070000000     0.758230000000    -0.0543547  
C91      C      0.485370000000     0.347400000000     0.815000000000    -0.0491408  
C92      C      0.499950000000     0.141730000000     0.716480000000    -0.0408171  
C93      C      0.483570000000     0.167570000000     0.630620000000     0.0323202  
C94      C      0.486490000000     0.109110000000     0.684430000000     0.0196141  
C95      C      0.451240000000     0.230560000000     0.756410000000    -0.0546033  
C96      C      0.530740000000     0.256300000000     0.782240000000    -0.0530278  
C97      C      0.486880000000     0.212560000000     0.738420000000     0.0611013  
C98      C      0.497350000000     0.197080000000     0.665350000000    -0.044817   
C99      C      0.495130000000     0.274530000000     0.799970000000     0.0615603  
C100     C      0.482180000000     0.297450000000     0.871080000000    -0.0923567  
C101     C      0.455180000000     0.261360000000     0.786940000000    -0.0564997  
C102     C      0.497880000000     0.328740000000     0.903650000000     0.203229   
C103     C      0.500880000000     0.381930000000     0.843810000000     0.0438227  
C104     C      0.526810000000     0.225600000000     0.751660000000    -0.0565031  
C105     C      0.791620000000     0.376820000000     0.497490000000    -0.0441435  
C106     C      0.693770000000     0.169730000000     0.489440000000    -0.0456643  
C107     C      0.605260000000     0.184760000000     0.506400000000     0.0323907  
C108     C      0.667090000000     0.134030000000     0.506300000000     0.0323464  
C109     C      0.717460000000     0.256360000000     0.457660000000    -0.0565244  
C110     C      0.755580000000     0.293590000000     0.526940000000    -0.0562655  
C111     C      0.706660000000     0.243250000000     0.498240000000     0.0605801  
C112     C      0.635590000000     0.217590000000     0.489550000000    -0.0456832  
C113     C      0.766990000000     0.306220000000     0.486370000000     0.0606432  
C114     C      0.840980000000     0.319790000000     0.493100000000    -0.0916464  
C115     C      0.747410000000     0.287590000000     0.451930000000    -0.0533943  
C116     C      0.876210000000     0.348270000000     0.477740000000     0.202716   
C117     C      0.824710000000     0.408310000000     0.483170000000     0.032117   
C118     C      0.725650000000     0.262410000000     0.532670000000    -0.0545377  
C119     C      0.823110000000     0.668780000000     0.513120000000    -0.0426245  
C120     C      0.723340000000     0.874730000000     0.512160000000    -0.0438382  
C121     C      0.641180000000     0.846500000000     0.484420000000     0.0216706  
C122     C      0.691940000000     0.906370000000     0.494660000000     0.0295753  
C123     C      0.757560000000     0.791760000000     0.544110000000    -0.0563837  
C124     C      0.801110000000     0.754880000000     0.477920000000    -0.0557944  
C125     C      0.748960000000     0.804150000000     0.502770000000     0.060832   
C126     C      0.674490000000     0.817850000000     0.503030000000    -0.0409015  
C127     C      0.809540000000     0.742290000000     0.519240000000     0.0606013  
C128     C      0.881250000000     0.717170000000     0.513780000000    -0.0870237  
C129     C      0.787670000000     0.761180000000     0.552130000000    -0.0531663  
C130     C      0.911570000000     0.683990000000     0.530680000000     0.19019    
C131     C      0.850360000000     0.633580000000     0.530140000000     0.0275559  
C132     C      0.771160000000     0.785590000000     0.469930000000    -0.054056   
C133     C      0.132070000000     0.290010000000     0.489720000000    -0.0467201  
C134     C      0.339630000000     0.190430000000     0.495020000000    -0.0452667  
C135     C      0.324240000000     0.101130000000     0.498510000000     0.0240717  
C136     C      0.374250000000     0.161860000000     0.511230000000     0.0325506  
C137     C      0.256640000000     0.218160000000     0.457430000000    -0.0565085  
C138     C      0.211150000000     0.247430000000     0.526160000000    -0.0567481  
C139     C      0.264980000000     0.202120000000     0.497520000000     0.0599565  
C140     C      0.292290000000     0.133130000000     0.482990000000    -0.0421913  
C141     C      0.203790000000     0.264380000000     0.486280000000     0.0606213  
C142     C      0.190040000000     0.336620000000     0.502180000000    -0.0930018  
C143     C      0.226350000000     0.249070000000     0.452030000000    -0.0538275  
C144     C      0.166110000000     0.374330000000     0.485450000000     0.205598   
C145     C      0.103940000000     0.325700000000     0.474510000000     0.0398935  
C146     C      0.241570000000     0.216600000000     0.531600000000    -0.0546812  
C147     C      0.174970000000     0.691170000000     0.496890000000    -0.0443597  
C148     C      0.380900000000     0.791780000000     0.503020000000    -0.0415988  
C149     C      0.350260000000     0.875680000000     0.486900000000     0.0213     
C150     C      0.411610000000     0.824950000000     0.487620000000     0.0218408  
C151     C      0.298500000000     0.753840000000     0.533920000000    -0.0567058  
C152     C      0.260970000000     0.716600000000     0.464340000000    -0.0564348  
C153     C      0.310000000000     0.766580000000     0.493410000000     0.0608721  
C154     C      0.322800000000     0.840020000000     0.502390000000    -0.0408017  
C155     C      0.248800000000     0.704520000000     0.504850000000     0.0609558  
C156     C      0.223820000000     0.633930000000     0.494410000000    -0.0907652  
C157     C      0.268130000000     0.723070000000     0.539430000000    -0.0529724  
C158     C      0.191120000000     0.602700000000     0.510390000000     0.201225   
C159     C      0.139540000000     0.663590000000     0.512850000000     0.0328111  
C160     C      0.291320000000     0.747400000000     0.458820000000    -0.0547741  
C161     C      0.804460000000     0.519940000000     0.362630000000    -0.0444434  
C162     C      0.704690000000     0.523410000000     0.156880000000    -0.0387249  
C163     C      0.616830000000     0.511800000000     0.179340000000     0.0203551  
C164     C      0.674710000000     0.506630000000     0.123870000000     0.0154896  
C165     C      0.735690000000     0.557000000000     0.240610000000    -0.0565704  
C166     C      0.771810000000     0.487840000000     0.279410000000    -0.0566895  
C167     C      0.722410000000     0.516720000000     0.229760000000     0.0611896  
C168     C      0.650380000000     0.528030000000     0.209170000000    -0.0403256  
C169     C      0.785090000000     0.528110000000     0.290310000000     0.0617276  
C170     C      0.857690000000     0.517540000000     0.308660000000    -0.092311   
C171     C      0.766800000000     0.562510000000     0.270730000000    -0.0537679  
C172     C      0.891950000000     0.532180000000     0.338780000000     0.20395    
C173     C      0.835840000000     0.534610000000     0.395380000000     0.0335145  
C174     C      0.740670000000     0.482340000000     0.249360000000    -0.0540354  
C175     C      0.203090000000     0.488800000000     0.358680000000    -0.0454857  
C176     C      0.302410000000     0.503780000000     0.151930000000    -0.045205   
C177     C      0.388230000000     0.521000000000     0.177660000000     0.0244695  
C178     C      0.333280000000     0.521870000000     0.120260000000     0.0322354  
C179     C      0.271180000000     0.465450000000     0.233170000000    -0.0567082  
C180     C      0.231220000000     0.529720000000     0.276540000000    -0.056959   
C181     C      0.281690000000     0.507070000000     0.224520000000     0.0606494  
C182     C      0.354990000000     0.502770000000     0.206640000000    -0.0421754  
C183     C      0.220780000000     0.488100000000     0.285130000000     0.0611172  
C184     C      0.148040000000     0.492760000000     0.306570000000    -0.0914737  
C185     C      0.240920000000     0.456210000000     0.263220000000    -0.0537756  
C186     C      0.116050000000     0.472570000000     0.336120000000     0.203312   
C187     C      0.173780000000     0.468190000000     0.390160000000     0.0375008  
C188     C      0.261460000000     0.538990000000     0.246380000000    -0.055022   
C189     C      0.209690000000     0.468190000000     0.655740000000    -0.0467107  
C190     C      0.310890000000     0.472830000000     0.861530000000    -0.0457838  
C191     C      0.398040000000     0.457070000000     0.839870000000     0.0345605  
C192     C      0.341750000000     0.458860000000     0.895200000000     0.0339095  
C193     C      0.281460000000     0.504380000000     0.776590000000    -0.0561503  
C194     C      0.240850000000     0.436300000000     0.740330000000    -0.0569061  
C195     C      0.292190000000     0.463780000000     0.789070000000     0.0603625  
C196     C      0.365150000000     0.471040000000     0.808100000000    -0.0461254  
C197     C      0.230140000000     0.476920000000     0.727950000000     0.0617021  
C198     C      0.156840000000     0.470460000000     0.709580000000    -0.086716   
C199     C      0.250690000000     0.510730000000     0.746270000000    -0.0537194  
C200     C      0.123700000000     0.488500000000     0.680040000000     0.189833   
C201     C      0.179920000000     0.485550000000     0.622690000000     0.0392929  
C202     C      0.271670000000     0.429930000000     0.770680000000    -0.0545883  
C203     C      0.712030000000     0.498000000000     0.863660000000    -0.0412613  
C204     C      0.810610000000     0.513750000000     0.656320000000    -0.039712   
C205     C      0.897740000000     0.527750000000     0.679350000000     0.0131746  
C206     C      0.840960000000     0.532300000000     0.624360000000     0.0185656  
C207     C      0.782400000000     0.472600000000     0.738260000000    -0.0564728  
C208     C      0.741920000000     0.536300000000     0.781910000000    -0.0561141  
C209     C      0.792460000000     0.514350000000     0.729660000000     0.0612582  
C210     C      0.865200000000     0.509360000000     0.709080000000    -0.0376286  
C211     C      0.732160000000     0.494540000000     0.790790000000     0.0612285  
C212     C      0.658870000000     0.496800000000     0.809410000000    -0.0906498  
C213     C      0.752540000000     0.462920000000     0.768660000000    -0.053269   
C214     C      0.626280000000     0.477930000000     0.839060000000     0.201501   
C215     C      0.681810000000     0.479580000000     0.895800000000     0.0255126  
C216     C      0.771930000000     0.545970000000     0.751660000000    -0.0543621  
C217     C      0.806160000000     0.856830000000     0.015980000000    -0.0395821  
C218     C      0.707300000000     0.650340000000     0.011330000000    -0.0519631  
C219     C      0.619510000000     0.672750000000     0.022160000000     0.0221684  
C220     C      0.676070000000     0.617150000000     0.025420000000     0.0171121  
C221     C      0.739670000000     0.733670000000     0.979710000000    -0.0452556  
C222     C      0.773250000000     0.773560000000     0.049820000000    -0.0557975  
C223     C      0.725540000000     0.722770000000     0.019930000000     0.0490938  
C224     C      0.653400000000     0.703220000000     0.008070000000    -0.0536711  
C225     C      0.787560000000     0.784200000000     0.009600000000     0.0515207  
C226     C      0.859560000000     0.804130000000     0.022730000000    -0.0864383  
C227     C      0.770470000000     0.764090000000     0.974750000000    -0.0432796  
C228     C      0.894070000000     0.832980000000     0.006390000000     0.182999   
C229     C      0.837590000000     0.889140000000     0.000270000000     0.0150445  
C230     C      0.742510000000     0.743020000000     0.054790000000    -0.0520024  
C231     C      0.805630000000     0.149310000000     0.019810000000    -0.0581507  
C232     C      0.708220000000     0.355500000000     0.012330000000    -0.0639031  
C233     C      0.621100000000     0.332930000000     0.997360000000     0.0636974  
C234     C      0.678170000000     0.388030000000     0.994870000000     0.0521576  
C235     C      0.737760000000     0.273350000000     0.049240000000    -0.0524064  
C236     C      0.775110000000     0.231080000000     0.982580000000    -0.0470383  
C237     C      0.726150000000     0.282810000000     0.007880000000     0.0431973  
C238     C      0.653720000000     0.303020000000     0.014880000000    -0.0678292  
C239     C      0.786910000000     0.221760000000     0.023930000000     0.0507833  
C240     C      0.859450000000     0.202560000000     0.015950000000    -0.105263   
C241     C      0.767990000000     0.243030000000     0.057060000000    -0.0536542  
C242     C      0.893100000000     0.172850000000     0.032290000000     0.206516   
C243     C      0.836750000000     0.117220000000     0.036190000000     0.0372499  
C244     C      0.744950000000     0.261430000000     0.974770000000    -0.041261   
C245     C      0.208550000000     0.856720000000     0.011210000000    -0.060577   
C246     C      0.307210000000     0.651660000000     0.000010000000    -0.0747704  
C247     C      0.392380000000     0.674470000000     0.976780000000     0.0207255  
C248     C      0.336260000000     0.619040000000     0.981120000000     0.0467636  
C249     C      0.280760000000     0.734710000000     0.037630000000    -0.0766709  
C250     C      0.235220000000     0.773750000000     0.974130000000    -0.0362259  
C251     C      0.287950000000     0.723960000000     0.995590000000     0.0795589  
C252     C      0.361110000000     0.704940000000     0.995800000000    -0.028805   
C253     C      0.228070000000     0.784560000000     0.016170000000     0.042352   
C254     C      0.154880000000     0.803310000000     0.016130000000    -0.103032   
C255     C      0.251000000000     0.764830000000     0.047700000000    -0.0427509  
C256     C      0.123260000000     0.833850000000     0.034900000000     0.199668   
C257     C      0.179380000000     0.889440000000     0.029710000000     0.0442573  
C258     C      0.264990000000     0.743660000000     0.964070000000    -0.0660112  
C259     C      0.208420000000     0.151140000000     0.019370000000    -0.0454083  
C260     C      0.305650000000     0.356720000000     0.992190000000    -0.00966983 
C261     C      0.393450000000     0.334670000000     0.004840000000    -0.00291946 
C262     C      0.336350000000     0.391040000000     0.004470000000    -0.00135522 
C263     C      0.272350000000     0.270800000000     0.969300000000    -0.0471303  
C264     C      0.241090000000     0.237390000000     0.043800000000    -0.0554955  
C265     C      0.287470000000     0.285400000000     0.007910000000     0.0508068  
C266     C      0.359210000000     0.303970000000     0.992390000000    -0.0088837  
C267     C      0.225860000000     0.222910000000     0.005190000000     0.0509351  
C268     C      0.154540000000     0.203480000000     0.022020000000    -0.0903388  
C269     C      0.241730000000     0.239820000000     0.968100000000    -0.0430166  
C270     C      0.120010000000     0.173050000000     0.009080000000     0.193798   
C271     C      0.177530000000     0.117030000000     0.006980000000     0.0294014  
C272     C      0.271650000000     0.268430000000     0.045000000000    -0.0535547  
C273     C      0.700950000000     0.015520000000     0.665110000000    -0.0553706  
C274     C      0.801410000000     0.001200000000     0.871000000000    -0.0608784  
C275     C      0.886660000000     0.984420000000     0.843220000000     0.0228686  
C276     C      0.833180000000     0.983030000000     0.901790000000     0.0297144  
C277     C      0.767480000000     0.039420000000     0.790530000000    -0.0703316  
C278     C      0.728710000000     0.974610000000     0.746950000000    -0.0414968  
C279     C      0.779060000000     0.997990000000     0.798730000000     0.0742798  
C280     C      0.852780000000     0.002950000000     0.815150000000    -0.0584631  
C281     C      0.717120000000     0.016040000000     0.738710000000     0.0476797  
C282     C      0.645100000000     0.008350000000     0.716060000000    -0.0961807  
C283     C      0.736690000000     0.048220000000     0.760790000000    -0.0453988  
C284     C      0.612400000000     0.025790000000     0.685560000000     0.191667   
C285     C      0.671010000000     0.033350000000     0.632480000000     0.0401232  
C286     C      0.759370000000     0.965810000000     0.776790000000    -0.061931   
C287     C      0.148950000000     0.992940000000     0.800140000000    -0.0144811  
C288     C      0.354660000000     0.985580000000     0.697820000000    -0.0279204  
C289     C      0.334320000000     0.969200000000     0.610570000000     0.0153042  
C290     C      0.388170000000     0.968270000000     0.668500000000     0.0107902  
C291     C      0.270570000000     0.022320000000     0.725080000000    -0.0622002  
C292     C      0.231690000000     0.956930000000     0.767710000000    -0.0598313  
C293     C      0.281220000000     0.980990000000     0.715210000000     0.0680095  
C294     C      0.302650000000     0.986030000000     0.642430000000    -0.0298133  
C295     C      0.221230000000     0.998270000000     0.777700000000     0.0762692  
C296     C      0.204390000000     0.994650000000     0.851620000000    -0.0643262  
C297     C      0.240810000000     0.030730000000     0.756020000000    -0.0628148  
C298     C      0.175460000000     0.013340000000     0.885140000000     0.179166   
C299     C      0.117360000000     0.011850000000     0.830630000000     0.000184536
C300     C      0.261440000000     0.948520000000     0.736720000000    -0.0537282  
C301     C      0.213740000000     0.020080000000     0.141580000000    -0.0564916  
C302     C      0.313550000000     0.006900000000     0.347850000000    -0.0669491  
C303     C      0.401740000000     0.993930000000     0.328300000000     0.049613   
C304     C      0.342490000000     0.988680000000     0.381120000000     0.0442817  
C305     C      0.287440000000     0.046610000000     0.265110000000    -0.0534099  
C306     C      0.247360000000     0.981800000000     0.222680000000    -0.0505636  
C307     C      0.298050000000     0.005110000000     0.274190000000     0.0463215  
C308     C      0.369960000000     0.011720000000     0.297370000000    -0.0606727  
C309     C      0.236670000000     0.023300000000     0.213790000000     0.0535586  
C310     C      0.162660000000     0.019680000000     0.197830000000    -0.101383   
C311     C      0.257030000000     0.055470000000     0.235080000000    -0.0545537  
C312     C      0.129320000000     0.040320000000     0.170270000000     0.203656   
C313     C      0.181780000000     0.038610000000     0.111120000000     0.0444178  
C314     C      0.277900000000     0.972920000000     0.252650000000    -0.0450666  
C315     C      0.810310000000     0.021450000000     0.163750000000    -0.0414109  
C316     C      0.712560000000     0.034960000000     0.372020000000    -0.0450058  
C317     C      0.627500000000     0.054460000000     0.345900000000     0.0315885  
C318     C      0.681160000000     0.052830000000     0.403540000000     0.0315166  
C319     C      0.743200000000     0.996430000000     0.289760000000    -0.0486197  
C320     C      0.784800000000     0.060240000000     0.247270000000    -0.0555917  
C321     C      0.733990000000     0.038160000000     0.299320000000     0.0533931  
C322     C      0.660280000000     0.035850000000     0.316600000000    -0.0446419  
C323     C      0.793740000000     0.018500000000     0.237460000000     0.0535154  
C324     C      0.866140000000     0.021370000000     0.214820000000    -0.0892236  
C325     C      0.772840000000     0.986840000000     0.259090000000    -0.0456383  
C326     C      0.897260000000     0.001500000000     0.184160000000     0.19411    
C327     C      0.838330000000     0.001990000000     0.130270000000     0.0217786  
C328     C      0.755150000000     0.069830000000     0.277950000000    -0.0536087  
C329     C      0.007940000000     0.199690000000     0.855350000000    -0.0523272  
C330     C      0.001720000000     0.299310000000     0.649720000000    -0.0624798  
C331     C      0.992360000000     0.385370000000     0.676690000000     0.0354398  
C332     C      0.985830000000     0.331550000000     0.618620000000     0.0418196  
C333     C      0.037680000000     0.264360000000     0.730190000000    -0.0672133  
C334     C      0.969590000000     0.231210000000     0.773930000000    -0.0459631  
C335     C      0.996880000000     0.278730000000     0.721970000000     0.0713847  
C336     C      0.008150000000     0.350640000000     0.704870000000    -0.0594978  
C337     C      0.010400000000     0.216920000000     0.782170000000     0.0525243  
C338     C      0.998140000000     0.145960000000     0.803250000000    -0.0690156  
C339     C      0.044220000000     0.233600000000     0.760100000000    -0.0480667  
C340     C      0.015530000000     0.112160000000     0.831980000000     0.17718    
C341     C      0.024950000000     0.168760000000     0.887190000000     0.0389065  
C342     C      0.963020000000     0.261930000000     0.743950000000    -0.0605505  
C343     C      0.007190000000     0.799370000000     0.867740000000    -0.0598791  
C344     C      0.009480000000     0.698650000000     0.661020000000    -0.0480486  
C345     C      0.022190000000     0.611470000000     0.682530000000     0.0148013  
C346     C      0.026340000000     0.668880000000     0.627770000000     0.0220187  
C347     C      0.974000000000     0.728490000000     0.744630000000    -0.0515108  
C348     C      0.042180000000     0.765340000000     0.785200000000    -0.0533899  
C349     C      0.015000000000     0.716040000000     0.734350000000     0.0556611  
C350     C      0.005650000000     0.644250000000     0.713040000000    -0.0450107  
C351     C      0.001190000000     0.777950000000     0.795290000000     0.05005    
C352     C      0.009780000000     0.850780000000     0.812700000000    -0.0972107  
C353     C      0.967310000000     0.759180000000     0.774840000000    -0.0448608  
C354     C      0.992430000000     0.885060000000     0.841280000000     0.199288   
C355     C      0.989950000000     0.830850000000     0.899230000000     0.0385818  
C356     C      0.048870000000     0.734640000000     0.754980000000    -0.0543917  
C357     C      0.025110000000     0.861000000000     0.213040000000    -0.0454022  
C358     C      0.023380000000     0.656740000000     0.313080000000    -0.05412    
C359     C      0.044040000000     0.676690000000     0.399470000000     0.0276158  
C360     C      0.039100000000     0.622590000000     0.342080000000     0.0370461  
C361     C      0.066150000000     0.747400000000     0.274570000000    -0.053607   
C362     C      0.984080000000     0.771500000000     0.256010000000    -0.047925   
C363     C      0.032610000000     0.728880000000     0.295630000000     0.0546819  
C364     C      0.028120000000     0.708700000000     0.368100000000    -0.0506497  
C365     C      0.017570000000     0.789650000000     0.234600000000     0.0563818  
C366     C      0.022910000000     0.806190000000     0.161270000000    -0.0885053  
C367     C      0.058830000000     0.777670000000     0.244260000000    -0.0566757  
C368     C      0.004910000000     0.835000000000     0.127800000000     0.191375   
C369     C      0.007450000000     0.892920000000     0.182560000000     0.0344179  
C370     C      0.991390000000     0.741360000000     0.286410000000    -0.0503441  
C371     C      0.018120000000     0.308650000000     0.354810000000    -0.047032   
C372     C      0.019860000000     0.208650000000     0.146860000000    -0.0524028  
C373     C      0.025740000000     0.122400000000     0.174370000000     0.0369162  
C374     C      0.036010000000     0.175640000000     0.116190000000     0.0349434  
C375     C      0.982890000000     0.244670000000     0.228760000000    -0.0505034  
C376     C      0.051790000000     0.277680000000     0.271410000000    -0.0561758  
C377     C      0.023390000000     0.229910000000     0.219660000000     0.0537181  
C378     C      0.009620000000     0.157980000000     0.201630000000    -0.0535473  
C379     C      0.011200000000     0.291700000000     0.281270000000     0.0548295  
C380     C      0.021300000000     0.363220000000     0.303190000000    -0.0914617  
C381     C      0.976990000000     0.275180000000     0.259400000000    -0.0475008  
C382     C      0.004700000000     0.396120000000     0.333880000000     0.19877    
C383     C      0.002020000000     0.338300000000     0.388600000000     0.0363928  
C384     C      0.057670000000     0.246950000000     0.240990000000    -0.0531202  
H1       H      0.978960000000     0.974460000000     0.041240000000    -1.23519    
H2       H      0.033280000000     0.028560000000     0.031120000000    -1.05235    
H3       H      0.967430000000     0.072190000000     0.969870000000    -0.501307   
H4       H      0.077170000000     0.963790000000     0.969140000000    -0.504015   
H5       H      0.981240000000     0.538220000000     0.478490000000    -1.26448    
H6       H      0.030250000000     0.478080000000     0.482410000000    -1.08316    
H7       H      0.962400000000     0.437290000000     0.542910000000    -0.540869   
H8       H      0.082580000000     0.533090000000     0.546390000000    -0.542456   
H9       H      0.483410000000     0.973960000000     0.471860000000    -1.24719    
H10      H      0.531850000000     0.032880000000     0.484280000000    -1.02434    
H11      H      0.580680000000     0.971630000000     0.546060000000    -0.488839   
H12      H      0.461240000000     0.068320000000     0.544940000000    -0.514575   
H13      H      0.475190000000     0.535650000000     0.034660000000    -1.24023    
H14      H      0.482520000000     0.478360000000     0.983360000000    -1.06542    
H15      H      0.543480000000     0.435890000000     0.050250000000    -0.496887   
H16      H      0.546450000000     0.537710000000     0.935340000000    -0.562386   
H17      H      0.579920000000     0.251280000000     0.289280000000     0.0429912  
H18      H      0.489160000000     0.377670000000     0.248970000000     0.0366153  
H19      H      0.492590000000     0.280070000000     0.160060000000     0.0497392  
H20      H      0.561410000000     0.188110000000     0.408210000000     0.0205649  
H21      H      0.448370000000     0.401910000000     0.190290000000     0.0357539  
H22      H      0.525660000000     0.156850000000     0.283940000000     0.0346525  
H23      H      0.518040000000     0.244210000000     0.382800000000     0.0351325  
H24      H      0.521120000000     0.098250000000     0.334830000000     0.0280678  
H25      H      0.499830000000     0.332280000000     0.102240000000    -0.00856986 
H26      H      0.564370000000     0.304100000000     0.236140000000     0.0395978  
H27      H      0.496690000000     0.430280000000     0.191500000000     0.0311685  
H28      H      0.447870000000     0.227990000000     0.304440000000     0.0394889  
H29      H      0.535280000000     0.370640000000     0.217250000000     0.0376113  
H30      H      0.511990000000     0.186270000000     0.434770000000     0.0313968  
H31      H      0.479050000000     0.158700000000     0.315740000000     0.0374194  
H32      H      0.474450000000     0.209900000000     0.373150000000     0.0374878  
H33      H      0.432290000000     0.280970000000     0.251400000000     0.0464888  
H34      H      0.536840000000     0.314290000000     0.165090000000     0.0466988  
H35      H      0.567160000000     0.129700000000     0.340770000000     0.0204031  
H36      H      0.437240000000     0.307940000000     0.110970000000     0.134992   
H37      H      0.582040000000     0.731150000000     0.209590000000     0.0403381  
H38      H      0.532050000000     0.877830000000     0.265930000000     0.0369021  
H39      H      0.536410000000     0.780030000000     0.354560000000     0.0499172  
H40      H      0.469730000000     0.687220000000     0.106110000000     0.0255322  
H41      H      0.572790000000     0.904480000000     0.323430000000     0.0327495  
H42      H      0.509390000000     0.655730000000     0.231330000000     0.0350075  
H43      H      0.511410000000     0.743390000000     0.132630000000     0.03454    
H44      H      0.517420000000     0.597680000000     0.179350000000     0.0354348  
H45      H      0.528460000000     0.831600000000     0.412810000000    -0.00303234 
H46      H      0.595130000000     0.784900000000     0.262480000000     0.0471561  
H47      H      0.522760000000     0.929770000000     0.323760000000     0.025457   
H48      H      0.449040000000     0.746290000000     0.226870000000     0.0430255  
H49      H      0.487280000000     0.868030000000     0.298810000000     0.0364795  
H50      H      0.519680000000     0.685080000000     0.080660000000     0.0340897  
H51      H      0.554880000000     0.659970000000     0.198280000000     0.0380591  
H52      H      0.556070000000     0.710320000000     0.141580000000     0.0376319  
H53      H      0.462130000000     0.799850000000     0.279940000000     0.0392943  
H54      H      0.490340000000     0.812000000000     0.350840000000     0.0454429  
H55      H      0.468130000000     0.624230000000     0.177300000000     0.0262001  
H56      H      0.591830000000     0.809950000000     0.400460000000     0.136058   
H57      H      0.572220000000     0.724780000000     0.769300000000     0.0439171  
H58      H      0.490820000000     0.854330000000     0.729160000000     0.0369232  
H59      H      0.502360000000     0.766030000000     0.631610000000     0.0496825  
H60      H      0.541600000000     0.676260000000     0.890050000000     0.0293709  
H61      H      0.456450000000     0.885680000000     0.670260000000     0.0377726  
H62      H      0.508200000000     0.632990000000     0.766020000000     0.0355743  
H63      H      0.503520000000     0.730080000000     0.855210000000     0.0365956  
H64      H      0.494100000000     0.580800000000     0.823520000000     0.0254293  
H65      H      0.516930000000     0.824280000000     0.580590000000    -0.00204803 
H66      H      0.564900000000     0.778190000000     0.715020000000     0.0398492  
H67      H      0.505230000000     0.911990000000     0.678560000000     0.0356213  
H68      H      0.438030000000     0.710820000000     0.773510000000     0.0402096  
H69      H      0.539710000000     0.849200000000     0.701450000000     0.0378556  
H70      H      0.490000000000     0.677450000000     0.912020000000     0.0346878  
H71      H      0.461060000000     0.642060000000     0.795590000000     0.0377006  
H72      H      0.458450000000     0.697450000000     0.846730000000     0.0378585  
H73      H      0.430700000000     0.764160000000     0.719080000000     0.0468444  
H74      H      0.546020000000     0.798770000000     0.644830000000     0.046128   
H75      H      0.544650000000     0.604850000000     0.824860000000     0.0246651  
H76      H      0.453990000000     0.798380000000     0.579710000000     0.135239   
H77      H      0.554840000000     0.212420000000     0.738050000000     0.0424432  
H78      H      0.497480000000     0.353580000000     0.782970000000     0.036776   
H79      H      0.491250000000     0.265550000000     0.881080000000     0.0524095  
H80      H      0.449270000000     0.171090000000     0.625770000000     0.0251657  
H81      H      0.534880000000     0.386860000000     0.838090000000     0.0340343  
H82      H      0.488990000000     0.131580000000     0.747890000000     0.0354007  
H83      H      0.484550000000     0.228510000000     0.658400000000     0.0356443  
H84      H      0.504320000000     0.080070000000     0.690650000000     0.0364933  
H85      H      0.478290000000     0.324850000000     0.932270000000    -0.005342   
H86      H      0.561640000000     0.266310000000     0.791880000000     0.0490272  
H87      H      0.484600000000     0.411200000000     0.835070000000     0.0285193  
H88      H      0.420350000000     0.220980000000     0.746340000000     0.0437119  
H89      H      0.450510000000     0.348050000000     0.813670000000     0.0362748  
H90      H      0.499360000000     0.177240000000     0.601220000000     0.0285628  
H91      H      0.534780000000     0.143430000000     0.717170000000     0.0418085  
H92      H      0.532170000000     0.199260000000     0.665520000000     0.0408183  
H93      H      0.427210000000     0.275170000000     0.800020000000     0.0395286  
H94      H      0.447340000000     0.298630000000     0.869740000000     0.04522    
H95      H      0.452750000000     0.102030000000     0.689170000000     0.0292688  
H96      H      0.540020000000     0.297850000000     0.934690000000     0.13535    
H97      H      0.717770000000     0.252530000000     0.564040000000     0.0442028  
H98      H      0.760310000000     0.388070000000     0.487260000000     0.0367792  
H99      H      0.846300000000     0.287970000000     0.480480000000     0.0508534  
H100     H      0.599520000000     0.191020000000     0.540090000000     0.0250452  
H101     H      0.819710000000     0.415120000000     0.449470000000     0.0368169  
H102     H      0.726670000000     0.164750000000     0.499790000000     0.0357212  
H103     H      0.624620000000     0.248720000000     0.500030000000     0.0356695  
H104     H      0.676400000000     0.105100000000     0.489740000000     0.0316483  
H105     H      0.905760000000     0.337290000000     0.492720000000    -0.00731437 
H106     H      0.770430000000     0.307150000000     0.554100000000     0.0397931  
H107     H      0.819810000000     0.437750000000     0.500680000000     0.0301383  
H108     H      0.703370000000     0.241950000000     0.430540000000     0.0401628  
H109     H      0.791720000000     0.375280000000     0.532250000000     0.0373244  
H110     H      0.574810000000     0.188380000000     0.489980000000     0.0311451  
H111     H      0.693260000000     0.169140000000     0.454630000000     0.036992   
H112     H      0.635020000000     0.217080000000     0.454750000000     0.0366924  
H113     H      0.756060000000     0.296740000000     0.420530000000     0.0472642  
H114     H      0.842270000000     0.317820000000     0.527840000000     0.0472117  
H115     H      0.674440000000     0.129540000000     0.539970000000     0.0252959  
H116     H      0.895930000000     0.319340000000     0.428160000000     0.137786   
H117     H      0.764650000000     0.794490000000     0.437950000000     0.0454062  
H118     H      0.790350000000     0.663470000000     0.523740000000     0.0364681  
H119     H      0.891830000000     0.748330000000     0.524580000000     0.0512968  
H120     H      0.642460000000     0.843800000000     0.449840000000     0.0377229  
H121     H      0.844930000000     0.630830000000     0.564350000000     0.0376161  
H122     H      0.755560000000     0.885880000000     0.505090000000     0.0368844  
H123     H      0.670200000000     0.786270000000     0.489470000000     0.0353702  
H124     H      0.695230000000     0.935780000000     0.512590000000     0.0293742  
H125     H      0.942230000000     0.688550000000     0.514600000000    -0.00150829 
H126     H      0.817130000000     0.740520000000     0.451860000000     0.0407896  
H127     H      0.839760000000     0.604090000000     0.515480000000     0.033901   
H128     H      0.740550000000     0.805200000000     0.570050000000     0.0403179  
H129     H      0.823460000000     0.667820000000     0.478320000000     0.0382838  
H130     H      0.609920000000     0.835330000000     0.494750000000     0.0359956  
H131     H      0.719790000000     0.873150000000     0.546740000000     0.0385299  
H132     H      0.669910000000     0.815650000000     0.537460000000     0.0380427  
H133     H      0.793490000000     0.751600000000     0.584040000000     0.0467614  
H134     H      0.882570000000     0.716950000000     0.479010000000     0.0464906  
H135     H      0.700330000000     0.913160000000     0.461630000000     0.0273544  
H136     H      0.937590000000     0.711950000000     0.577880000000     0.137155   
H137     H      0.247640000000     0.204600000000     0.562630000000     0.0431704  
H138     H      0.122160000000     0.260920000000     0.473710000000     0.0355799  
H139     H      0.224190000000     0.341690000000     0.497260000000     0.0495757  
H140     H      0.315360000000     0.091270000000     0.530620000000     0.0267008  
H141     H      0.102090000000     0.324330000000     0.439830000000     0.0294436  
H142     H      0.343320000000     0.221330000000     0.510220000000     0.0355748  
H143     H      0.260300000000     0.120880000000     0.489200000000     0.034559   
H144     H      0.404710000000     0.173500000000     0.499120000000     0.0264287  
H145     H      0.174770000000     0.401600000000     0.505170000000    -0.0077467  
H146     H      0.194250000000     0.258840000000     0.553140000000     0.0389461  
H147     H      0.071800000000     0.320380000000     0.486690000000     0.028304   
H148     H      0.274240000000     0.207580000000     0.430570000000     0.0396205  
H149     H      0.127590000000     0.285600000000     0.523960000000     0.0356112  
H150     H      0.322280000000     0.073220000000     0.478100000000     0.0319208  
H151     H      0.343510000000     0.194710000000     0.460690000000     0.0376     
H152     H      0.295800000000     0.137080000000     0.448590000000     0.0368316  
H153     H      0.221160000000     0.261940000000     0.421200000000     0.0471599  
H154     H      0.184620000000     0.333710000000     0.536460000000     0.0457756  
H155     H      0.375370000000     0.164160000000     0.545890000000     0.0249378  
H156     H      0.206370000000     0.394700000000     0.445010000000     0.134594   
H157     H      0.299750000000     0.757000000000     0.427500000000     0.0430641  
H158     H      0.169620000000     0.723290000000     0.508700000000     0.0369521  
H159     H      0.255560000000     0.623170000000     0.503900000000     0.051072   
H160     H      0.344940000000     0.879900000000     0.452820000000     0.0260415  
H161     H      0.135540000000     0.669020000000     0.546940000000     0.0353374  
H162     H      0.392060000000     0.760900000000     0.492000000000     0.0346559  
H163     H      0.290310000000     0.845340000000     0.491000000000     0.0357208  
H164     H      0.442010000000     0.820290000000     0.503870000000     0.0371102  
H165     H      0.194670000000     0.573620000000     0.491690000000    -0.0104048  
H166     H      0.246390000000     0.702900000000     0.437100000000     0.0391906  
H167     H      0.110100000000     0.673560000000     0.497230000000     0.0321597  
H168     H      0.312330000000     0.768260000000     0.561170000000     0.0423814  
H169     H      0.174030000000     0.692130000000     0.462100000000     0.0370686  
H170     H      0.339820000000     0.904610000000     0.502790000000     0.0368016  
H171     H      0.380780000000     0.791500000000     0.537820000000     0.0423003  
H172     H      0.322190000000     0.840240000000     0.537200000000     0.0410854  
H173     H      0.258950000000     0.714200000000     0.570760000000     0.0481017  
H174     H      0.222910000000     0.634640000000     0.459620000000     0.0454168  
H175     H      0.417210000000     0.820160000000     0.453660000000     0.0250932  
H176     H      0.220770000000     0.572480000000     0.553920000000     0.134674   
H177     H      0.730790000000     0.451200000000     0.241140000000     0.0443118  
H178     H      0.773050000000     0.532430000000     0.371030000000     0.0368893  
H179     H      0.865880000000     0.527790000000     0.276440000000     0.0517071  
H180     H      0.609550000000     0.479020000000     0.187600000000     0.0295579  
H181     H      0.832530000000     0.568790000000     0.399350000000     0.0315606  
H182     H      0.736620000000     0.511340000000     0.149930000000     0.0350799  
H183     H      0.641360000000     0.519310000000     0.241620000000     0.0351517  
H184     H      0.682490000000     0.521670000000     0.093550000000     0.0350602  
H185     H      0.920860000000     0.514140000000     0.331320000000    -0.00728451 
H186     H      0.785510000000     0.460750000000     0.294070000000     0.042261   
H187     H      0.827530000000     0.519810000000     0.425660000000     0.0337375  
H188     H      0.722140000000     0.584040000000     0.225710000000     0.0403095  
H189     H      0.802770000000     0.485370000000     0.363310000000     0.040862   
H190     H      0.587790000000     0.530230000000     0.184330000000     0.0349033  
H191     H      0.705710000000     0.557960000000     0.154930000000     0.0372862  
H192     H      0.651520000000     0.562580000000     0.207320000000     0.0374046  
H193     H      0.776800000000     0.593640000000     0.278840000000     0.0469231  
H194     H      0.856700000000     0.482940000000     0.308750000000     0.0514     
H195     H      0.680200000000     0.472700000000     0.120130000000     0.0322649  
H196     H      0.919070000000     0.577370000000     0.308830000000     0.135876   
H197     H      0.269360000000     0.571120000000     0.240140000000     0.0426739  
H198     H      0.235570000000     0.477850000000     0.364900000000     0.035887   
H199     H      0.139530000000     0.485170000000     0.273700000000     0.0481283  
H200     H      0.390870000000     0.554910000000     0.183840000000     0.024047   
H201     H      0.178610000000     0.434210000000     0.387560000000     0.0451306  
H202     H      0.270360000000     0.514540000000     0.143570000000     0.0343448  
H203     H      0.362200000000     0.512660000000     0.239190000000     0.0356176  
H204     H      0.326480000000     0.507940000000     0.089210000000     0.0244475  
H205     H      0.085260000000     0.487880000000     0.330500000000    -0.00481115 
H206     H      0.216140000000     0.554860000000     0.293200000000     0.0390795  
H207     H      0.182730000000     0.478170000000     0.422180000000     0.0322356  
H208     H      0.286490000000     0.440200000000     0.216890000000     0.0413415  
H209     H      0.202260000000     0.523150000000     0.362950000000     0.0366059  
H210     H      0.418820000000     0.506560000000     0.185670000000     0.0357251  
H211     H      0.303040000000     0.469250000000     0.149720000000     0.0391902  
H212     H      0.356600000000     0.468210000000     0.205300000000     0.0403951  
H213     H      0.233200000000     0.424070000000     0.269650000000     0.0473014  
H214     H      0.146590000000     0.527160000000     0.310160000000     0.0453182  
H215     H      0.327800000000     0.555900000000     0.117760000000     0.0194487  
H216     H      0.096930000000     0.427710000000     0.300310000000     0.133667   
H217     H      0.279550000000     0.398550000000     0.780020000000     0.042832   
H218     H      0.242190000000     0.477450000000     0.647280000000     0.0365989  
H219     H      0.149770000000     0.480680000000     0.742070000000     0.051299   
H220     H      0.401270000000     0.422710000000     0.837990000000     0.0196428  
H221     H      0.188090000000     0.518640000000     0.616800000000     0.0387681  
H222     H      0.279190000000     0.461230000000     0.870080000000     0.035821   
H223     H      0.373690000000     0.458070000000     0.777000000000     0.0350323  
H224     H      0.332790000000     0.473940000000     0.925120000000     0.0313605  
H225     H      0.093680000000     0.471810000000     0.686310000000    -0.00385099 
H226     H      0.225380000000     0.409680000000     0.726610000000     0.0392802  
H227     H      0.185290000000     0.468330000000     0.593030000000     0.0252879  
H228     H      0.296740000000     0.531090000000     0.790330000000     0.040047   
H229     H      0.208080000000     0.433610000000     0.655530000000     0.036131   
H230     H      0.428600000000     0.470980000000     0.830970000000     0.0314017  
H231     H      0.309880000000     0.507420000000     0.860930000000     0.0382268  
H232     H      0.365720000000     0.505560000000     0.805870000000     0.0379246  
H233     H      0.242730000000     0.542120000000     0.737020000000     0.0487074  
H234     H      0.155040000000     0.435880000000     0.708920000000     0.0449254  
H235     H      0.338670000000     0.424690000000     0.899460000000     0.0199253  
H236     H      0.098820000000     0.533500000000     0.712180000000     0.137185   
H237     H      0.779230000000     0.578200000000     0.745260000000     0.0446952  
H238     H      0.744380000000     0.488060000000     0.871870000000     0.0380432  
H239     H      0.651760000000     0.486590000000     0.776920000000     0.0505568  
H240     H      0.900900000000     0.561510000000     0.686060000000     0.0331544  
H241     H      0.687870000000     0.445640000000     0.898290000000     0.0390075  
H242     H      0.778660000000     0.525810000000     0.649570000000     0.0352911  
H243     H      0.873850000000     0.518090000000     0.741610000000     0.0362513  
H244     H      0.832270000000     0.520480000000     0.592890000000     0.0356147  
H245     H      0.595510000000     0.492430000000     0.831350000000    -0.00723576 
H246     H      0.726350000000     0.561340000000     0.798280000000     0.0404275  
H247     H      0.688790000000     0.493640000000     0.926740000000     0.0360716  
H248     H      0.797620000000     0.447580000000     0.721550000000     0.0407762  
H249     H      0.710590000000     0.532520000000     0.865500000000     0.0389456  
H250     H      0.928430000000     0.512940000000     0.686120000000     0.0394614  
H251     H      0.810070000000     0.479330000000     0.652720000000     0.0385032  
H252     H      0.866020000000     0.474850000000     0.706590000000     0.0390298  
H253     H      0.745140000000     0.430690000000     0.774960000000     0.0477057  
H254     H      0.656280000000     0.531310000000     0.810380000000     0.0475897  
H255     H      0.836990000000     0.566620000000     0.624070000000     0.0321264  
H256     H      0.605600000000     0.430130000000     0.808130000000     0.136603   
H257     H      0.731840000000     0.735050000000     0.085900000000     0.0434063  
H258     H      0.774950000000     0.864210000000     0.002400000000     0.0339517  
H259     H      0.868050000000     0.771400000000     0.015260000000     0.0482066  
H260     H      0.613250000000     0.677690000000     0.055990000000     0.0298977  
H261     H      0.833750000000     0.892570000000     0.965910000000     0.0475878  
H262     H      0.738590000000     0.642420000000     0.024420000000     0.0365196  
H263     H      0.644340000000     0.734930000000     0.018650000000     0.0363934  
H264     H      0.684840000000     0.587270000000     0.010340000000     0.0335248  
H265     H      0.922590000000     0.827410000000     0.025770000000     0.000687797
H266     H      0.785890000000     0.788740000000     0.077220000000     0.0415367  
H267     H      0.829520000000     0.919560000000     0.014640000000     0.0358551  
H268     H      0.726970000000     0.718650000000     0.952240000000     0.0398175  
H269     H      0.803600000000     0.859020000000     0.050630000000     0.0387522  
H270     H      0.590220000000     0.680230000000     0.004930000000     0.032284   
H271     H      0.709650000000     0.649780000000     0.976610000000     0.0480683  
H272     H      0.654950000000     0.703380000000     0.973290000000     0.0482214  
H273     H      0.781150000000     0.772040000000     0.943650000000     0.048227   
H274     H      0.857650000000     0.806910000000     0.057390000000     0.049691   
H275     H      0.679070000000     0.612860000000     0.059770000000     0.0304021  
H276     H      0.920690000000     0.798080000000     0.964650000000     0.137694   
H277     H      0.736180000000     0.268410000000     0.942840000000     0.0441129  
H278     H      0.774100000000     0.141720000000     0.032520000000     0.0372245  
H279     H      0.867800000000     0.234850000000     0.025290000000     0.0524294  
H280     H      0.617280000000     0.326730000000     0.963390000000     0.0317785  
H281     H      0.833570000000     0.115150000000     0.070740000000     0.0345279  
H282     H      0.740280000000     0.362610000000     0.000690000000     0.0382645  
H283     H      0.645110000000     0.270900000000     0.005220000000     0.0379571  
H284     H      0.686420000000     0.418640000000     0.008720000000     0.0229564  
H285     H      0.922540000000     0.179840000000     0.014860000000    -0.0102611  
H286     H      0.789280000000     0.215050000000     0.956440000000     0.0393056  
H287     H      0.828200000000     0.086420000000     0.022970000000     0.0274961  
H288     H      0.723560000000     0.289410000000     0.075350000000     0.038616   
H289     H      0.804180000000     0.147110000000     0.985100000000     0.0472582  
H290     H      0.590640000000     0.326210000000     0.012780000000     0.0180293  
H291     H      0.708540000000     0.357660000000     0.047070000000     0.0428384  
H292     H      0.653200000000     0.304490000000     0.049650000000     0.0427026  
H293     H      0.776830000000     0.236120000000     0.088980000000     0.0462651  
H294     H      0.859140000000     0.201230000000     0.981160000000     0.0569916  
H295     H      0.682930000000     0.390340000000     0.960530000000     0.0287549  
H296     H      0.919060000000     0.203410000000     0.077890000000     0.13622    
H297     H      0.270230000000     0.735600000000     0.931630000000     0.0467308  
H298     H      0.241300000000     0.864870000000     0.019830000000     0.0378648  
H299     H      0.147870000000     0.771520000000     0.027960000000     0.0509516  
H300     H      0.392490000000     0.678600000000     0.942280000000     0.0278847  
H301     H      0.186340000000     0.892690000000     0.063600000000     0.031395   
H302     H      0.274420000000     0.643760000000     0.991270000000     0.0473642  
H303     H      0.368370000000     0.736640000000     0.983900000000     0.0348093  
H304     H      0.329040000000     0.588580000000     0.995810000000     0.024958   
H305     H      0.091930000000     0.826000000000     0.021640000000    -0.00598084 
H306     H      0.217860000000     0.788540000000     0.949200000000     0.0359217  
H307     H      0.186410000000     0.919720000000     0.014550000000     0.0242702  
H308     H      0.298080000000     0.719850000000     0.062550000000     0.0431204  
H309     H      0.205900000000     0.857430000000     0.976510000000     0.0479895  
H310     H      0.424140000000     0.682520000000     0.988450000000     0.0372477  
H311     H      0.309810000000     0.650570000000     0.034710000000     0.0402217  
H312     H      0.364930000000     0.705080000000     0.030390000000     0.0279358  
H313     H      0.245740000000     0.772870000000     0.080140000000     0.0427969  
H314     H      0.151060000000     0.802950000000     0.981530000000     0.0561801  
H315     H      0.329400000000     0.616370000000     0.947150000000     0.0201497  
H316     H      0.103830000000     0.805280000000     0.084830000000     0.135527   
H317     H      0.283120000000     0.279320000000     0.074900000000     0.0444829  
H318     H      0.239710000000     0.143000000000     0.006410000000     0.0335041  
H319     H      0.145520000000     0.235360000000     0.011870000000     0.0486133  
H320     H      0.401650000000     0.329450000000     0.038210000000     0.0353141  
H321     H      0.182130000000     0.109570000000     0.973350000000     0.0446838  
H322     H      0.274030000000     0.365340000000     0.004030000000     0.0215893  
H323     H      0.368070000000     0.272670000000     0.004310000000     0.0211653  
H324     H      0.329280000000     0.419110000000     0.985470000000     0.0418783  
H325     H      0.092390000000     0.178980000000     0.029650000000    -0.00465616 
H326     H      0.229350000000     0.224750000000     0.072860000000     0.0402001  
H327     H      0.185280000000     0.088490000000     0.024980000000     0.0303388  
H328     H      0.284200000000     0.283310000000     0.940220000000     0.0390755  
H329     H      0.211160000000     0.152270000000     0.054060000000     0.0375544  
H330     H      0.421930000000     0.327690000000     0.986130000000     0.045567   
H331     H      0.303890000000     0.354670000000     0.957480000000     0.0301604  
H332     H      0.357290000000     0.302160000000     0.957670000000     0.0298472  
H333     H      0.230290000000     0.228900000000     0.938200000000     0.0484908  
H334     H      0.157210000000     0.203830000000     0.056740000000     0.0464952  
H335     H      0.330860000000     0.399460000000     0.037730000000     0.0317007  
H336     H      0.088280000000     0.203390000000     0.967070000000     0.134235   
H337     H      0.768150000000     0.933830000000     0.782620000000     0.0481635  
H338     H      0.732660000000     0.028750000000     0.659420000000     0.0373414  
H339     H      0.635310000000     0.015860000000     0.748590000000     0.0515193  
H340     H      0.888500000000     0.950520000000     0.836980000000     0.0409756  
H341     H      0.673880000000     0.067790000000     0.632580000000     0.0328512  
H342     H      0.769650000000     0.990120000000     0.879980000000     0.0456593  
H343     H      0.859290000000     0.993400000000     0.782340000000     0.0443516  
H344     H      0.826870000000     0.996460000000     0.933170000000     0.0380444  
H345     H      0.582930000000     0.007780000000     0.690280000000    -0.00354025 
H346     H      0.714340000000     0.949180000000     0.730110000000     0.0375728  
H347     H      0.681120000000     0.022130000000     0.601220000000     0.025134   
H348     H      0.782440000000     0.064860000000     0.806820000000     0.0430358  
H349     H      0.702840000000     0.981180000000     0.661140000000     0.0452973  
H350     H      0.917210000000     0.998430000000     0.834400000000     0.0395672  
H351     H      0.801840000000     0.035720000000     0.873480000000     0.0413373  
H352     H      0.854270000000     0.037490000000     0.816800000000     0.0409165  
H353     H      0.728260000000     0.080230000000     0.754600000000     0.0445274  
H354     H      0.645880000000     0.973890000000     0.712970000000     0.0537091  
H355     H      0.828070000000     0.948920000000     0.903940000000     0.0330675  
H356     H      0.585030000000     0.069000000000     0.718110000000     0.136495   
H357     H      0.269430000000     0.916570000000     0.729660000000     0.0443522  
H358     H      0.139880000000     0.002150000000     0.767850000000     0.0251752  
H359     H      0.237110000000     0.004830000000     0.857870000000     0.0414663  
H360     H      0.329610000000     0.935110000000     0.607390000000     0.0324918  
H361     H      0.114800000000     0.045530000000     0.823700000000     0.0533787  
H362     H      0.361590000000     0.974570000000     0.730070000000     0.0351427  
H363     H      0.270870000000     0.975110000000     0.633350000000     0.0347344  
H364     H      0.418900000000     0.981480000000     0.677910000000     0.0408008  
H365     H      0.183110000000     0.997760000000     0.915350000000     0.00444852 
H366     H      0.217070000000     0.931280000000     0.783980000000     0.0413557  
H367     H      0.086250000000     0.997490000000     0.824780000000     0.045721   
H368     H      0.285520000000     0.048030000000     0.709180000000     0.0413373  
H369     H      0.147540000000     0.958420000000     0.802250000000     0.0323836  
H370     H      0.327600000000     0.983580000000     0.579720000000     0.0377779  
H371     H      0.356320000000     0.020160000000     0.697680000000     0.0324368  
H372     H      0.302850000000     0.020610000000     0.641190000000     0.0317349  
H373     H      0.233140000000     0.062680000000     0.763370000000     0.0502681  
H374     H      0.203580000000     0.960120000000     0.854040000000     0.0425476  
H375     H      0.389900000000     0.934040000000     0.672920000000     0.0331494  
H376     H      0.207970000000     0.059630000000     0.906910000000     0.135272   
H377     H      0.285590000000     0.940860000000     0.259500000000     0.0417463  
H378     H      0.245530000000     0.030780000000     0.132250000000     0.0363527  
H379     H      0.157000000000     0.028390000000     0.231040000000     0.0479596  
H380     H      0.406650000000     0.960480000000     0.321070000000     0.0184702  
H381     H      0.187310000000     0.072660000000     0.108910000000     0.0289037  
H382     H      0.281360000000     0.994840000000     0.353440000000     0.0457146  
H383     H      0.379960000000     0.003170000000     0.265170000000     0.0360121  
H384     H      0.332750000000     0.001240000000     0.411990000000     0.0249304  
H385     H      0.098050000000     0.028220000000     0.179720000000    -0.00772372 
H386     H      0.231800000000     0.956420000000     0.206830000000     0.0399906  
H387     H      0.187690000000     0.025130000000     0.079710000000     0.0285805  
H388     H      0.302280000000     0.072040000000     0.281520000000     0.0381237  
H389     H      0.212870000000     0.985560000000     0.139210000000     0.0448476  
H390     H      0.432100000000     0.010120000000     0.323430000000     0.0173693  
H391     H      0.312790000000     0.041350000000     0.351170000000     0.0421701  
H392     H      0.370040000000     0.046240000000     0.299840000000     0.0402004  
H393     H      0.248880000000     0.087510000000     0.228680000000     0.045734   
H394     H      0.159880000000     0.985260000000     0.195330000000     0.0543294  
H395     H      0.338080000000     0.954410000000     0.382020000000     0.0209244  
H396     H      0.121440000000     0.088810000000     0.205620000000     0.136522   
H397     H      0.748300000000     0.102060000000     0.284850000000     0.0431194  
H398     H      0.777400000000     0.011870000000     0.157540000000     0.0341646  
H399     H      0.874960000000     0.012380000000     0.247250000000     0.0492604  
H400     H      0.627960000000     0.088730000000     0.341800000000     0.0205256  
H401     H      0.830830000000     0.968330000000     0.127850000000     0.0405735  
H402     H      0.744500000000     0.045560000000     0.380910000000     0.0347466  
H403     H      0.653590000000     0.046740000000     0.284270000000     0.0342307  
H404     H      0.687980000000     0.039380000000     0.434780000000     0.0307022  
H405     H      0.928110000000     0.017100000000     0.188930000000    -0.0076848  
H406     H      0.800480000000     0.085300000000     0.231040000000     0.0404229  
H407     H      0.830450000000     0.016520000000     0.099730000000     0.0338293  
H408     H      0.727210000000     0.971360000000     0.305660000000     0.0423188  
H409     H      0.812030000000     0.055940000000     0.161270000000     0.0385482  
H410     H      0.596080000000     0.043050000000     0.336410000000     0.030304   
H411     H      0.711800000000     0.000410000000     0.373850000000     0.0371027  
H412     H      0.657620000000     0.001340000000     0.317150000000     0.0373377  
H413     H      0.779370000000     0.954610000000     0.251870000000     0.0478958  
H414     H      0.868530000000     0.055830000000     0.212500000000     0.0476565  
H415     H      0.686020000000     0.086990000000     0.405590000000     0.0211012  
H416     H      0.921020000000     0.956170000000     0.216600000000     0.137155   
H417     H      0.931550000000     0.272930000000     0.737950000000     0.0455865  
H418     H      0.022320000000     0.230580000000     0.861670000000     0.0385399  
H419     H      0.004230000000     0.137050000000     0.770160000000     0.0419955  
H420     H      0.958780000000     0.391210000000     0.683760000000     0.0275322  
H421     H      0.059650000000     0.171430000000     0.888000000000     0.0439772  
H422     H      0.988090000000     0.268590000000     0.641290000000     0.0421978  
H423     H      0.999450000000     0.358250000000     0.737690000000     0.0436584  
H424     H      0.999210000000     0.324140000000     0.587410000000     0.0269726  
H425     H      0.996270000000     0.083630000000     0.827090000000     0.00432704 
H426     H      0.943010000000     0.218760000000     0.790750000000     0.0379797  
H427     H      0.013050000000     0.177780000000     0.918550000000     0.0298894  
H428     H      0.064350000000     0.277080000000     0.713740000000     0.041676   
H429     H      0.973410000000     0.202610000000     0.859350000000     0.0431317  
H430     H      0.010030000000     0.414120000000     0.684520000000     0.0287826  
H431     H      0.036430000000     0.297040000000     0.647130000000     0.0396231  
H432     H      0.042940000000     0.349080000000     0.702880000000     0.0404953  
H433     H      0.075730000000     0.222810000000     0.766310000000     0.0467727  
H434     H      0.963590000000     0.148090000000     0.807530000000     0.0435142  
H435     H      0.951210000000     0.328810000000     0.616190000000     0.0235302  
H436     H      0.056810000000     0.086480000000     0.795740000000     0.133436   
H437     H      0.080580000000     0.725440000000     0.747370000000     0.0453068  
H438     H      0.995530000000     0.767950000000     0.876500000000     0.045528   
H439     H      0.000710000000     0.857760000000     0.779840000000     0.051396   
H440     H      0.055830000000     0.605770000000     0.689400000000     0.0395034  
H441     H      0.955610000000     0.826130000000     0.901580000000     0.0478917  
H442     H      0.021640000000     0.730350000000     0.654150000000     0.0364805  
H443     H      0.015000000000     0.635070000000     0.745250000000     0.0363566  
H444     H      0.012090000000     0.677480000000     0.597270000000     0.0376772  
H445     H      0.009810000000     0.914210000000     0.833780000000    -0.00526184 
H446     H      0.068890000000     0.779400000000     0.800450000000     0.0390398  
H447     H      0.003790000000     0.824090000000     0.930370000000     0.0308708  
H448     H      0.947280000000     0.714720000000     0.729130000000     0.0424616  
H449     H      0.042010000000     0.799000000000     0.869580000000     0.0408549  
H450     H      0.005100000000     0.581930000000     0.688380000000     0.0361765  
H451     H      0.974680000000     0.699660000000     0.659020000000     0.0487286  
H452     H      0.970810000000     0.644780000000     0.711610000000     0.0449837  
H453     H      0.935610000000     0.768630000000     0.782200000000     0.0477756  
H454     H      0.044620000000     0.850950000000     0.814320000000     0.0487287  
H455     H      0.060730000000     0.673480000000     0.624910000000     0.0328427  
H456     H      0.947560000000     0.907820000000     0.807280000000     0.138594   
H457     H      0.964960000000     0.727530000000     0.302360000000     0.0409444  
H458     H      0.015560000000     0.870040000000     0.245250000000     0.0353904  
H459     H      0.012300000000     0.773840000000     0.154860000000     0.0487517  
H460     H      0.078730000000     0.679030000000     0.401370000000     0.0262874  
H461     H      0.973670000000     0.897580000000     0.189510000000     0.040672   
H462     H      0.033110000000     0.648980000000     0.280590000000     0.0357198  
H463     H      0.041410000000     0.739560000000     0.376530000000     0.0363369  
H464     H      0.022860000000     0.593220000000     0.333650000000     0.025142   
H465     H      0.020980000000     0.827290000000     0.097790000000    -0.000496081
H466     H      0.952230000000     0.780570000000     0.248830000000     0.0483795  
H467     H      0.023630000000     0.923010000000     0.188160000000     0.0265895  
H468     H      0.097980000000     0.738060000000     0.281480000000     0.0427453  
H469     H      0.059960000000     0.861470000000     0.211470000000     0.0392834  
H470     H      0.031160000000     0.684670000000     0.430730000000     0.0318445  
H471     H      0.988530000000     0.657510000000     0.314190000000     0.0457921  
H472     H      0.993380000000     0.710650000000     0.370360000000     0.0442441  
H473     H      0.085210000000     0.791410000000     0.228150000000     0.0407555  
H474     H      0.057740000000     0.806630000000     0.159270000000     0.0490017  
H475     H      0.073150000000     0.617960000000     0.336530000000     0.0208836  
H476     H      0.958120000000     0.803800000000     0.104750000000     0.137006   
H477     H      0.089020000000     0.236040000000     0.234280000000     0.0443084  
H478     H      0.006020000000     0.276950000000     0.361720000000     0.0349394  
H479     H      0.012360000000     0.372390000000     0.270840000000     0.0487474  
H480     H      0.058370000000     0.115740000000     0.183590000000     0.0307954  
H481     H      0.967860000000     0.333120000000     0.392730000000     0.0376978  
H482     H      0.034640000000     0.238920000000     0.138780000000     0.0355661  
H483     H      0.016340000000     0.150290000000     0.234880000000     0.0356833  
H484     H      0.023520000000     0.182950000000     0.084610000000     0.0307591  
H485     H      0.023060000000     0.425180000000     0.328770000000    -0.00229377 
H486     H      0.078820000000     0.290120000000     0.287510000000     0.0420892  
H487     H      0.017460000000     0.330030000000     0.418620000000     0.0308246  
H488     H      0.955880000000     0.232230000000     0.212630000000     0.0411243  
H489     H      0.052950000000     0.307520000000     0.356230000000     0.0401985  
H490     H      0.006780000000     0.094240000000     0.181260000000     0.0268594  
H491     H      0.985350000000     0.212050000000     0.143110000000     0.0447179  
H492     H      0.975050000000     0.160610000000     0.197910000000     0.0456624  
H493     H      0.945590000000     0.285800000000     0.266410000000     0.0477757  
H494     H      0.056120000000     0.362440000000     0.304670000000     0.0523056  
H495     H      0.070700000000     0.178080000000     0.114390000000     0.0240661  
H496     H      0.960990000000     0.424040000000     0.302190000000     0.134925   
N1       N      0.490380000000     0.385140000000     0.142050000000    -0.237357   
N2       N      0.486480000000     0.326070000000     0.207500000000    -0.0987289  
N3       N      0.525920000000     0.203850000000     0.330750000000    -0.111185   
N4       N      0.523120000000     0.137960000000     0.389230000000    -0.235      
N5       N      0.533470000000     0.885020000000     0.372880000000    -0.236842   
N6       N      0.538960000000     0.826490000000     0.307240000000    -0.0986992  
N7       N      0.505220000000     0.702420000000     0.184420000000    -0.111901   
N8       N      0.507550000000     0.636950000000     0.125770000000    -0.206582   
N9       N      0.502010000000     0.872570000000     0.624140000000    -0.215847   
N10      N      0.491240000000     0.807410000000     0.682300000000    -0.0996229  
N11      N      0.511590000000     0.683840000000     0.808380000000    -0.110673   
N12      N      0.504010000000     0.624890000000     0.872970000000    -0.223979   
N13      N      0.494810000000     0.372180000000     0.888610000000    -0.24739    
N14      N      0.500700000000     0.307220000000     0.830280000000    -0.0975472  
N15      N      0.481470000000     0.182160000000     0.705720000000    -0.110941   
N16      N      0.492490000000     0.123700000000     0.641030000000    -0.214937   
N17      N      0.867690000000     0.392130000000     0.488710000000    -0.238219   
N18      N      0.800250000000     0.335810000000     0.479060000000    -0.0983271  
N19      N      0.677850000000     0.209410000000     0.505580000000    -0.11026    
N20      N      0.621640000000     0.141950000000     0.502100000000    -0.230951   
N21      N      0.895390000000     0.641590000000     0.522910000000    -0.219835   
N22      N      0.838440000000     0.708960000000     0.528680000000    -0.0993493  
N23      N      0.716390000000     0.833800000000     0.492910000000    -0.110697   
N24      N      0.648550000000     0.890400000000     0.495830000000    -0.220222   
N25      N      0.120350000000     0.367080000000     0.486580000000    -0.247852   
N26      N      0.176030000000     0.299240000000     0.479920000000    -0.0979909  
N27      N      0.298410000000     0.172730000000     0.504980000000    -0.110836   
N28      N      0.367360000000     0.117880000000     0.499680000000    -0.223579   
N29      N      0.147950000000     0.618890000000     0.506020000000    -0.237815   
N30      N      0.215300000000     0.675240000000     0.511980000000    -0.0983233  
N31      N      0.338920000000     0.800350000000     0.486360000000    -0.111571   
N32      N      0.395290000000     0.867510000000     0.493890000000    -0.206497   
N33      N      0.879370000000     0.525360000000     0.382730000000    -0.238838   
N34      N      0.817120000000     0.535110000000     0.321220000000    -0.0985572  
N35      N      0.690950000000     0.509560000000     0.198340000000    -0.111669   
N36      N      0.630270000000     0.513240000000     0.135120000000    -0.202628   
N37      N      0.129570000000     0.477230000000     0.380160000000    -0.249781   
N38      N      0.190140000000     0.477060000000     0.316240000000    -0.0990519  
N39      N      0.313370000000     0.517850000000     0.194270000000    -0.111374   
N40      N      0.377110000000     0.514890000000     0.133260000000    -0.224654   
N41      N      0.135460000000     0.483380000000     0.635570000000    -0.230261   
N42      N      0.198480000000     0.484990000000     0.696860000000    -0.0982148  
N43      N      0.323480000000     0.456000000000     0.820660000000    -0.111238   
N44      N      0.385200000000     0.468370000000     0.882710000000    -0.238653   
N45      N      0.637770000000     0.485860000000     0.883120000000    -0.23044    
N46      N      0.701100000000     0.483230000000     0.821540000000    -0.0986952  
N47      N      0.823420000000     0.525650000000     0.698830000000    -0.111918   
N48      N      0.884810000000     0.522580000000     0.635310000000    -0.200387   
N49      N      0.881520000000     0.877200000000     0.008970000000    -0.216659   
N50      N      0.819570000000     0.815150000000     0.003020000000    -0.0999967  
N51      N      0.693870000000     0.691400000000     0.026390000000    -0.108134   
N52      N      0.632410000000     0.629080000000     0.015820000000    -0.201856   
N53      N      0.880230000000     0.129170000000     0.025980000000    -0.241307   
N54      N      0.818410000000     0.191100000000     0.033260000000    -0.0950646  
N55      N      0.695210000000     0.313950000000     0.998420000000    -0.093196   
N56      N      0.634080000000     0.376640000000     0.002920000000    -0.229995   
N57      N      0.135110000000     0.877090000000     0.024750000000    -0.240935   
N58      N      0.197670000000     0.815520000000     0.027850000000    -0.0941288  
N59      N      0.318310000000     0.693000000000     0.983870000000    -0.108731   
N60      N      0.380540000000     0.631150000000     0.986390000000    -0.224702   
N61      N      0.133260000000     0.129130000000     0.013390000000    -0.243597   
N62      N      0.194170000000     0.191090000000     0.002490000000    -0.0986691  
N63      N      0.319220000000     0.317180000000     0.010580000000    -0.122827   
N64      N      0.380690000000     0.378580000000     0.999600000000    -0.214717   
N65      N      0.627140000000     0.022140000000     0.641890000000    -0.230962   
N66      N      0.686450000000     0.026510000000     0.707290000000    -0.0956724  
N67      N      0.811510000000     0.987580000000     0.828320000000    -0.103889   
N68      N      0.876670000000     0.990570000000     0.887870000000    -0.199578   
N69      N      0.130760000000     0.007070000000     0.874600000000    -0.222143   
N70      N      0.191120000000     0.008390000000     0.809860000000    -0.112579   
N71      N      0.313050000000     0.971030000000     0.684640000000    -0.114384   
N72      N      0.377790000000     0.976890000000     0.624320000000    -0.19869    
N73      N      0.138400000000     0.031550000000     0.125860000000    -0.251341   
N74      N      0.204260000000     0.033860000000     0.184340000000    -0.0964125  
N75      N      0.328170000000     0.994630000000     0.306090000000    -0.0985239  
N76      N      0.386920000000     0.997610000000     0.371900000000    -0.223085   
N77      N      0.883320000000     0.006420000000     0.140320000000    -0.234727   
N78      N      0.823450000000     0.007220000000     0.205360000000    -0.0994436  
N79      N      0.702340000000     0.049390000000     0.329550000000    -0.110744   
N80      N      0.637740000000     0.044850000000     0.389830000000    -0.234452   
N81      N      0.013830000000     0.125500000000     0.876180000000    -0.229314   
N82      N      0.018630000000     0.185590000000     0.813060000000    -0.100176   
N83      N      0.988920000000     0.311190000000     0.692160000000    -0.105247   
N84      N      0.996320000000     0.374200000000     0.632090000000    -0.217246   
N85      N      0.997610000000     0.874220000000     0.885970000000    -0.210946   
N86      N      0.992880000000     0.810280000000     0.825510000000    -0.0890062  
N87      N      0.023320000000     0.685130000000     0.702650000000    -0.108871   
N88      N      0.018290000000     0.624890000000     0.638490000000    -0.198384   
N89      N      0.011670000000     0.879190000000     0.138670000000    -0.236382   
N90      N      0.008540000000     0.819760000000     0.202650000000    -0.0988135  
N91      N      0.041380000000     0.696860000000     0.325760000000    -0.109134   
N92      N      0.032770000000     0.634170000000     0.386280000000    -0.227685   
N93      N      0.008890000000     0.382540000000     0.377900000000    -0.245622   
N94      N      0.003590000000     0.322380000000     0.313470000000    -0.0980915  
N95      N      0.030680000000     0.196840000000     0.189880000000    -0.107715   
N96      N      0.025100000000     0.132900000000     0.129380000000    -0.232525   
O1       O      0.019240000000     0.112380000000     0.059810000000    -1.03267    
O2       O      0.011560000000     0.894840000000     0.067820000000    -0.785804   
O3       O      0.953250000000     0.005890000000     0.118950000000    -0.99976    
O4       O      0.067880000000     0.018020000000     0.112360000000    -1.07263    
O5       O      0.117520000000     0.017290000000     0.058040000000    -1.0592     
O6       O      0.898550000000     0.006290000000     0.069010000000    -0.785478   
O7       O      0.012590000000     0.948690000000     0.118270000000    -1.01485    
O8       O      0.017640000000     0.062630000000     0.113690000000    -1.06015    
O9       O      0.054640000000     0.964810000000     0.052620000000    -2.0676     
O10      O      0.968660000000     0.049050000000     0.052990000000    -2.07907    
O11      O      0.964110000000     0.959480000000     0.058280000000    -0.860038   
O12      O      0.016570000000     0.012020000000     0.016010000000    -2.5618     
O13      O      0.003230000000     0.894310000000     0.956120000000    -0.698651   
O14      O      0.010120000000     0.109430000000     0.947030000000    -0.932037   
O15      O      0.899180000000     0.947530000000     0.011500000000    -0.737189   
O16      O      0.116930000000     0.946270000000     0.012920000000    -0.950684   
O17      O      0.115580000000     0.059090000000     0.010630000000    -1.03011    
O18      O      0.897730000000     0.059320000000     0.018500000000    -0.778732   
O19      O      0.947890000000     0.998050000000     0.902360000000    -0.577785   
O20      O      0.060680000000     0.003670000000     0.895300000000    -0.621887   
O21      O      0.897510000000     0.997870000000     0.957350000000    -0.708578   
O22      O      0.114640000000     0.004740000000     0.945820000000    -0.920289   
O23      O      0.952270000000     0.895260000000     0.011610000000    -0.725497   
O24      O      0.949710000000     0.111260000000     0.013230000000    -0.949915   
O25      O      0.063040000000     0.110500000000     0.012650000000    -1.03967    
O26      O      0.064750000000     0.894490000000     0.017730000000    -0.772492   
O27      O      0.003070000000     0.944810000000     0.901600000000    -0.583997   
O28      O      0.007410000000     0.056320000000     0.896070000000    -0.632245   
O29      O      0.050440000000     0.046150000000     0.965110000000    -1.96561    
O30      O      0.968150000000     0.964060000000     0.972090000000    -1.58214    
O31      O      0.959500000000     0.044920000000     0.963010000000    -1.24371    
O32      O      0.049660000000     0.955950000000     0.962390000000    -1.24514    
O33      O      0.006940000000     0.398520000000     0.448800000000    -1.06361    
O34      O      0.024000000000     0.615290000000     0.455820000000    -0.802219   
O35      O      0.949550000000     0.515880000000     0.400510000000    -1.01569    
O36      O      0.061420000000     0.492190000000     0.400050000000    -1.09229    
O37      O      0.114130000000     0.485140000000     0.450930000000    -1.06435    
O38      O      0.897070000000     0.516960000000     0.452710000000    -0.802414   
O39      O      0.017460000000     0.565230000000     0.402080000000    -1.02618    
O40      O      0.009360000000     0.451980000000     0.398670000000    -1.06101    
O41      O      0.057270000000     0.540900000000     0.464690000000    -2.10699    
O42      O      0.962900000000     0.465730000000     0.462130000000    -2.10864    
O43      O      0.967530000000     0.555850000000     0.463170000000    -0.867204   
O44      O      0.016070000000     0.495030000000     0.499500000000    -2.59209    
O45      O      0.016880000000     0.609130000000     0.567290000000    -0.715715   
O46      O      0.999050000000     0.394490000000     0.562250000000    -0.94433    
O47      O      0.905920000000     0.570410000000     0.513840000000    -0.742531   
O48      O      0.122950000000     0.550570000000     0.505210000000    -0.946233   
O49      O      0.109810000000     0.437950000000     0.496800000000    -1.06232    
O50      O      0.892510000000     0.459720000000     0.499350000000    -0.769691   
O51      O      0.953940000000     0.508640000000     0.616740000000    -0.584199   
O52      O      0.065070000000     0.490710000000     0.617940000000    -0.622952   
O53      O      0.901400000000     0.516890000000     0.564470000000    -0.719193   
O54      O      0.116840000000     0.487690000000     0.565190000000    -0.942037   
O55      O      0.963960000000     0.617170000000     0.514950000000    -0.731753   
O56      O      0.939310000000     0.402870000000     0.497840000000    -0.957866   
O57      O      0.052300000000     0.392110000000     0.494280000000    -1.05937    
O58      O      0.075990000000     0.607360000000     0.506320000000    -0.774277   
O59      O      0.013930000000     0.555250000000     0.618320000000    -0.580029   
O60      O      0.005060000000     0.444060000000     0.616420000000    -0.637582   
O61      O      0.048090000000     0.454030000000     0.546230000000    -2.00847    
O62      O      0.974400000000     0.544400000000     0.548490000000    -1.60663    
O63      O      0.957710000000     0.464490000000     0.552360000000    -1.24269    
O64      O      0.056540000000     0.543480000000     0.554970000000    -1.23765    
O65      O      0.617760000000     0.028630000000     0.457790000000    -1.02636    
O66      O      0.400780000000     0.998890000000     0.443280000000    -0.792969   
O67      O      0.521720000000     0.953350000000     0.394790000000    -0.990699   
O68      O      0.517630000000     0.067040000000     0.402570000000    -1.04883    
O69      O      0.511040000000     0.115510000000     0.457240000000    -1.0452     
O70      O      0.525920000000     0.898610000000     0.444010000000    -0.796036   
O71      O      0.456120000000     0.004420000000     0.394390000000    -1.00067    
O72      O      0.568580000000     0.026480000000     0.403090000000    -1.05406    
O73      O      0.465880000000     0.047940000000     0.461240000000    -2.07861    
O74      O      0.559870000000     0.971730000000     0.461970000000    -2.05601    
O75      O      0.470490000000     0.958040000000     0.454110000000    -0.874918   
O76      O      0.516610000000     0.014510000000     0.498740000000    -2.55334    
O77      O      0.398630000000     0.987390000000     0.554960000000    -0.715729   
O78      O      0.613300000000     0.017280000000     0.570430000000    -0.924063   
O79      O      0.464030000000     0.891930000000     0.497980000000    -0.744744   
O80      O      0.439470000000     0.106770000000     0.504670000000    -0.941978   
O81      O      0.553280000000     0.117100000000     0.505100000000    -1.03105    
O82      O      0.576410000000     0.901710000000     0.497440000000    -0.77846    
O83      O      0.506260000000     0.943680000000     0.610880000000    -0.594106   
O84      O      0.499810000000     0.054930000000     0.619450000000    -0.631308   
O85      O      0.511660000000     0.894650000000     0.555260000000    -0.72335    
O86      O      0.497750000000     0.109260000000     0.569780000000    -0.929202   
O87      O      0.406210000000     0.939020000000     0.497970000000    -0.750523   
O88      O      0.623250000000     0.958040000000     0.504990000000    -0.9239     
O89      O      0.610390000000     0.070630000000     0.505050000000    -1.0202     
O90      O      0.393120000000     0.050080000000     0.496630000000    -0.784486   
O91      O      0.448010000000     0.991260000000     0.610700000000    -0.588397   
O92      O      0.558880000000     0.009010000000     0.619740000000    -0.634468   
O93      O      0.546020000000     0.050780000000     0.550760000000    -1.9646     
O94      O      0.472420000000     0.961170000000     0.540330000000    -1.62688    
O95      O      0.554060000000     0.960670000000     0.551860000000    -1.26201    
O96      O      0.455700000000     0.040370000000     0.551080000000    -1.26495    
O97      O      0.450960000000     0.396740000000     0.002590000000    -1.04425    
O98      O      0.450740000000     0.613860000000     0.994760000000    -0.767575   
O99      O      0.396960000000     0.509840000000     0.063210000000    -1.00614    
O100     O      0.401020000000     0.488150000000     0.950650000000    -1.07232    
O101     O      0.453870000000     0.485460000000     0.899510000000    -1.07867    
O102     O      0.447880000000     0.509380000000     0.116960000000    -0.805172   
O103     O      0.398440000000     0.561880000000     0.997730000000    -1.00531    
O104     O      0.398880000000     0.448500000000     0.001660000000    -1.05101    
O105     O      0.462920000000     0.541580000000     0.958510000000    -2.08468    
O106     O      0.460810000000     0.462040000000     0.049320000000    -2.08653    
O107     O      0.458840000000     0.552100000000     0.048710000000    -0.868789   
O108     O      0.498600000000     0.495170000000     0.998810000000    -2.55968    
O109     O      0.562230000000     0.611040000000     0.007140000000    -0.701177   
O110     O      0.563970000000     0.395580000000     0.009110000000    -0.932314   
O111     O      0.506420000000     0.565740000000     0.112070000000    -0.749507   
O112     O      0.505010000000     0.555630000000     0.894860000000    -0.970199   
O113     O      0.500270000000     0.442790000000     0.902610000000    -1.06017    
O114     O      0.496860000000     0.454130000000     0.120190000000    -0.780861   
O115     O      0.613940000000     0.506920000000     0.064550000000    -0.59349    
O116     O      0.618680000000     0.496270000000     0.952730000000    -0.621715   
O117     O      0.559900000000     0.512600000000     0.115690000000    -0.733378   
O118     O      0.567070000000     0.493030000000     0.899920000000    -0.953496   
O119     O      0.506850000000     0.615030000000     0.056240000000    -0.721227   
O120     O      0.499860000000     0.399350000000     0.071150000000    -0.942216   
O121     O      0.497460000000     0.394240000000     0.957750000000    -1.02711    
O122     O      0.503410000000     0.610240000000     0.944230000000    -0.753461   
O123     O      0.615230000000     0.558890000000     0.009130000000    -0.589348   
O124     O      0.616970000000     0.446790000000     0.007220000000    -0.630232   
O125     O      0.547360000000     0.457410000000     0.966240000000    -1.99699    
O126     O      0.544830000000     0.543860000000     0.043810000000    -1.5971     
O127     O      0.551220000000     0.463330000000     0.056630000000    -1.26789    
O128     O      0.553800000000     0.547230000000     0.962070000000    -1.21788    
O129     O      0.440630000000     0.333400000000     0.128170000000    -0.285381   
O130     O      0.586500000000     0.836090000000     0.384840000000    -0.28238    
O131     O      0.454960000000     0.822630000000     0.598870000000    -0.27801    
O132     O      0.539940000000     0.320190000000     0.913280000000    -0.278921   
O133     O      0.879880000000     0.345100000000     0.434110000000    -0.280747   
O134     O      0.916810000000     0.689330000000     0.573940000000    -0.279353   
O135     O      0.178180000000     0.381690000000     0.444010000000    -0.285095   
O136     O      0.198610000000     0.594090000000     0.552790000000    -0.277917   
O137     O      0.899500000000     0.574780000000     0.332800000000    -0.288879   
O138     O      0.112630000000     0.430030000000     0.326980000000    -0.28842    
O139     O      0.118550000000     0.531090000000     0.688320000000    -0.274762   
O140     O      0.623990000000     0.434790000000     0.832710000000    -0.281319   
O141     O      0.902750000000     0.823280000000     0.964520000000    -0.266659   
O142     O      0.899410000000     0.179650000000     0.075210000000    -0.285817   
O143     O      0.122290000000     0.829320000000     0.078560000000    -0.284111   
O144     O      0.108940000000     0.180320000000     0.967190000000    -0.268496   
O145     O      0.605120000000     0.067940000000     0.694450000000    -0.282159   
O146     O      0.183090000000     0.056200000000     0.888630000000    -0.272479   
O147     O      0.130390000000     0.083520000000     0.176370000000    -0.292114   
O148     O      0.901100000000     0.958890000000     0.192920000000    -0.27737    
O149     O      0.057340000000     0.103900000000     0.821350000000    -0.272523   
O150     O      0.949630000000     0.890800000000     0.833080000000    -0.278072   
O151     O      0.961670000000     0.827950000000     0.123740000000    -0.27791    
O152     O      0.962190000000     0.403800000000     0.325590000000    -0.276416   
Tb1      Tb     0.009400000000     0.004580000000     0.078790000000     6.34878    
Tb2      Tb     0.009170000000     0.933610000000     0.012550000000     4.28697    
Tb3      Tb     0.006360000000     0.073420000000     0.005250000000     6.18917    
Tb4      Tb     0.937360000000     0.004230000000     0.013080000000     4.32232    
Tb5      Tb     0.078470000000     0.002340000000     0.004550000000     6.20026    
Tb6      Tb     0.006810000000     0.002770000000     0.937600000000     3.14701    
Tb7      Tb     0.006970000000     0.507900000000     0.437850000000     6.41882    
Tb8      Tb     0.016750000000     0.573540000000     0.508500000000     4.35245    
Tb9      Tb     0.999820000000     0.434340000000     0.506340000000     6.35672    
Tb10     Tb     0.937960000000     0.510550000000     0.506400000000     4.37029    
Tb11     Tb     0.079060000000     0.497620000000     0.508430000000     6.35505    
Tb12     Tb     0.010150000000     0.499690000000     0.578370000000     3.14325    
Tb13     Tb     0.511360000000     0.007720000000     0.435630000000     6.23003    
Tb14     Tb     0.438550000000     0.999140000000     0.499720000000     4.41602    
Tb15     Tb     0.579040000000     0.010520000000     0.511060000000     6.08002    
Tb16     Tb     0.516980000000     0.935520000000     0.500230000000     4.41659    
Tb17     Tb     0.500130000000     0.074500000000     0.510480000000     6.2061     
Tb18     Tb     0.506420000000     0.002660000000     0.576480000000     3.20071    
Tb19     Tb     0.436130000000     0.505360000000     0.006550000000     6.29696    
Tb20     Tb     0.504840000000     0.573610000000     0.001700000000     4.17452    
Tb21     Tb     0.507130000000     0.433990000000     0.012270000000     6.17496    
Tb22     Tb     0.502960000000     0.506980000000     0.077310000000     4.44107    
Tb23     Tb     0.509160000000     0.501050000000     0.936360000000     6.45862    
Tb24     Tb     0.577350000000     0.501900000000     0.006890000000     3.14999    


