data_structure

_audit_creation_method RASPA-1.0
_audit_creation_date 2023-5-25
_audit_author_name 'Poobodin Mano'

_cell_length_a    32.1417
_cell_length_b    32.0436
_cell_length_c    32.1843
_cell_angle_alpha 90
_cell_angle_beta  90
_cell_angle_gamma 90
_cell_volume      33147.8

_symmetry_cell_setting          triclinic
_symmetry_space_group_name_Hall 'P 1'
_symmetry_space_group_name_H-M  'P 1'
_symmetry_Int_Tables_number     1

_symmetry_equiv_pos_as_xyz 'x,y,z'

loop_
_atom_site_label
_atom_site_type_symbol
_atom_site_fract_x
_atom_site_fract_y
_atom_site_fract_z
_atom_site_charge
C1       C      0.020290000000     0.102890000000     0.098460000000     0.710371   
C2       C      0.997510000000     0.910440000000     0.104650000000     0.668436   
C3       C      0.903950000000     0.017990000000     0.098730000000     0.667311   
C4       C      0.097180000000     0.016720000000     0.103100000000     0.72009    
C5       C      0.002790000000     0.906790000000     0.913390000000     0.564643   
C6       C      0.013940000000     0.098340000000     0.904470000000     0.645007   
C7       C      0.905180000000     0.913220000000     0.003490000000     0.573533   
C8       C      0.096630000000     0.904680000000     0.018950000000     0.678136   
C9       C      0.103200000000     0.098300000000     0.016060000000     0.700627   
C10      C      0.910680000000     0.106160000000     0.005500000000     0.682997   
C11      C      0.912260000000     0.000240000000     0.907660000000     0.555812   
C12      C      0.104640000000     0.006060000000     0.910680000000     0.628561   
C13      C      0.013900000000     0.413350000000     0.406440000000     0.711695   
C14      C      0.010600000000     0.608050000000     0.414540000000     0.675795   
C15      C      0.906330000000     0.510700000000     0.409220000000     0.672109   
C16      C      0.098870000000     0.497540000000     0.409770000000     0.736914   
C17      C      0.001530000000     0.596500000000     0.604810000000     0.559668   
C18      C      0.011590000000     0.404290000000     0.598460000000     0.645665   
C19      C      0.908140000000     0.601120000000     0.512420000000     0.585438   
C20      C      0.101070000000     0.602030000000     0.505030000000     0.693891   
C21      C      0.096390000000     0.407840000000     0.487990000000     0.713022   
C22      C      0.904200000000     0.409930000000     0.496060000000     0.676189   
C23      C      0.908190000000     0.507830000000     0.600150000000     0.56774    
C24      C      0.099780000000     0.494190000000     0.602940000000     0.655946   
C25      C      0.596790000000     0.023990000000     0.406900000000     0.717346   
C26      C      0.403150000000     0.018460000000     0.412230000000     0.6672     
C27      C      0.501200000000     0.915270000000     0.400920000000     0.676391   
C28      C      0.509900000000     0.109030000000     0.415520000000     0.729017   
C29      C      0.412950000000     0.994520000000     0.602120000000     0.564816   
C30      C      0.605470000000     0.006930000000     0.598230000000     0.633775   
C31      C      0.409390000000     0.910160000000     0.502140000000     0.589057   
C32      C      0.406180000000     0.102550000000     0.510530000000     0.677441   
C33      C      0.598700000000     0.101440000000     0.489460000000     0.713889   
C34      C      0.601060000000     0.908820000000     0.486030000000     0.674278   
C35      C      0.506810000000     0.903380000000     0.592140000000     0.560892   
C36      C      0.513750000000     0.095320000000     0.608280000000     0.647546   
C37      C      0.412580000000     0.407610000000     0.021690000000     0.722009   
C38      C      0.606250000000     0.414070000000     0.015900000000     0.678571   
C39      C      0.506190000000     0.400760000000     0.914460000000     0.685248   
C40      C      0.496690000000     0.419020000000     0.106450000000     0.733906   
C41      C      0.596460000000     0.603820000000     0.988980000000     0.567267   
C42      C      0.403860000000     0.599030000000     0.005610000000     0.656178   
C43      C      0.599120000000     0.502430000000     0.906470000000     0.590886   
C44      C      0.603380000000     0.513600000000     0.097420000000     0.700411   
C45      C      0.411770000000     0.498400000000     0.100210000000     0.720812   
C46      C      0.408020000000     0.486480000000     0.907510000000     0.68659    
C47      C      0.501010000000     0.593000000000     0.899760000000     0.573384   
C48      C      0.499690000000     0.612580000000     0.090110000000     0.660756   
C49      C      0.516870000000     0.167490000000     0.313980000000    -0.0483488  
C50      C      0.485720000000     0.373370000000     0.214550000000    -0.0466237  
C51      C      0.498820000000     0.345970000000     0.128930000000     0.0360858  
C52      C      0.497910000000     0.406160000000     0.181910000000     0.0346684  
C53      C      0.538030000000     0.287130000000     0.254790000000    -0.0538443  
C54      C      0.461480000000     0.255350000000     0.281170000000    -0.0538835  
C55      C      0.501250000000     0.302590000000     0.237090000000     0.0598058  
C56      C      0.486300000000     0.317340000000     0.164770000000    -0.0468656  
C57      C      0.498300000000     0.239220000000     0.298180000000     0.0603631  
C58      C      0.509950000000     0.217490000000     0.369680000000    -0.0680221  
C59      C      0.536710000000     0.255890000000     0.285200000000    -0.0565119  
C60      C      0.497490000000     0.183700000000     0.401330000000     0.126621   
C61      C      0.505640000000     0.130740000000     0.342340000000     0.0405302  
C62      C      0.462790000000     0.286820000000     0.251010000000    -0.0562292  
C63      C      0.410420000000     0.186500000000     0.413440000000     0.0359936  
C64      C      0.507100000000     0.815750000000     0.341200000000    -0.0434222  
C65      C      0.494880000000     0.721150000000     0.133730000000    -0.0405662  
C66      C      0.508850000000     0.635640000000     0.162040000000     0.0365291  
C67      C      0.507880000000     0.687960000000     0.102050000000     0.0202205  
C68      C      0.540290000000     0.761840000000     0.223210000000    -0.0544094  
C69      C      0.460590000000     0.785600000000     0.248860000000    -0.0537358  
C70      C      0.505330000000     0.743680000000     0.204630000000     0.0614224  
C71      C      0.494280000000     0.670970000000     0.189980000000    -0.0461561  
C72      C      0.495530000000     0.802890000000     0.268220000000     0.0617716  
C73      C      0.504430000000     0.873580000000     0.292820000000    -0.0671324  
C74      C      0.535570000000     0.791390000000     0.254710000000    -0.0566007  
C75      C      0.489090000000     0.903950000000     0.326220000000     0.124568   
C76      C      0.492380000000     0.842780000000     0.377360000000     0.0284248  
C77      C      0.465290000000     0.756260000000     0.217220000000    -0.0564523  
C78      C      0.402660000000     0.917930000000     0.317180000000     0.0326072  
C79      C      0.510530000000     0.636940000000     0.792000000000    -0.0412121  
C80      C      0.503190000000     0.843930000000     0.692820000000    -0.0378801  
C81      C      0.511310000000     0.827470000000     0.603970000000     0.0184802  
C82      C      0.517740000000     0.879130000000     0.664020000000     0.0128329  
C83      C      0.543550000000     0.750710000000     0.724600000000    -0.0537278  
C84      C      0.463380000000     0.726620000000     0.748270000000    -0.0531313  
C85      C      0.509120000000     0.770000000000     0.706010000000     0.0603988  
C86      C      0.496410000000     0.795290000000     0.635860000000    -0.0398769  
C87      C      0.497820000000     0.707490000000     0.767010000000     0.0607139  
C88      C      0.503570000000     0.694020000000     0.840620000000    -0.0616383  
C89      C      0.538120000000     0.719890000000     0.754940000000    -0.0560632  
C90      C      0.488680000000     0.665050000000     0.875650000000     0.110531   
C91      C      0.495770000000     0.604740000000     0.824050000000     0.0223826  
C92      C      0.468820000000     0.757690000000     0.718170000000    -0.055931   
C93      C      0.401910000000     0.673900000000     0.887690000000     0.0406617  
C94      C      0.527980000000     0.295270000000     0.869390000000    -0.0474805  
C95      C      0.522580000000     0.139420000000     0.716110000000    -0.0400231  
C96      C      0.507820000000     0.167850000000     0.630960000000     0.0349359  
C97      C      0.511360000000     0.106970000000     0.683340000000     0.0199219  
C98      C      0.540430000000     0.227730000000     0.752310000000    -0.0562587  
C99      C      0.465490000000     0.245640000000     0.792680000000    -0.0541253  
C100     C      0.503390000000     0.207990000000     0.739670000000     0.0617021  
C101     C      0.519330000000     0.196280000000     0.667080000000    -0.0456832  
C102     C      0.501900000000     0.266360000000     0.804490000000     0.0625513  
C103     C      0.500990000000     0.340600000000     0.815680000000    -0.0650675  
C104     C      0.539570000000     0.257270000000     0.784130000000    -0.0566413  
C105     C      0.484950000000     0.372720000000     0.846800000000     0.119342   
C106     C      0.515420000000     0.325530000000     0.903880000000     0.0391359  
C107     C      0.466200000000     0.216720000000     0.760430000000    -0.0546193  
C108     C      0.398100000000     0.362100000000     0.856790000000     0.0394279  
C109     C      0.700740000000     0.154010000000     0.488220000000    -0.0477874  
C110     C      0.799820000000     0.360370000000     0.479910000000    -0.0421449  
C111     C      0.884790000000     0.335950000000     0.500930000000     0.0327547  
C112     C      0.829510000000     0.393440000000     0.497020000000     0.0243566  
C113     C      0.757360000000     0.271320000000     0.523100000000    -0.0545813  
C114     C      0.739740000000     0.243850000000     0.442520000000    -0.0540465  
C115     C      0.778950000000     0.288520000000     0.489410000000     0.060821   
C116     C      0.851940000000     0.306170000000     0.483720000000    -0.0451697  
C117     C      0.718540000000     0.226270000000     0.476270000000     0.0607839  
C118     C      0.646050000000     0.205930000000     0.480100000000    -0.0648759  
C119     C      0.727300000000     0.240520000000     0.516720000000    -0.0565403  
C120     C      0.614900000000     0.172920000000     0.465030000000     0.119693   
C121     C      0.671910000000     0.118980000000     0.473740000000     0.0402068  
C122     C      0.769670000000     0.274820000000     0.448880000000    -0.0567546  
C123     C      0.612520000000     0.172480000000     0.377190000000     0.0248259  
C124     C      0.805460000000     0.652310000000     0.498150000000    -0.0415914  
C125     C      0.704260000000     0.858190000000     0.492670000000    -0.044286   
C126     C      0.619650000000     0.835730000000     0.468880000000     0.0227421  
C127     C      0.675220000000     0.891400000000     0.474500000000     0.030538   
C128     C      0.748690000000     0.767800000000     0.455170000000    -0.0541464  
C129     C      0.760670000000     0.742770000000     0.537520000000    -0.0534781  
C130     C      0.724330000000     0.785680000000     0.486640000000     0.0602832  
C131     C      0.651090000000     0.804650000000     0.486980000000    -0.0417764  
C132     C      0.784800000000     0.724690000000     0.506040000000     0.0608522  
C133     C      0.858080000000     0.705510000000     0.508830000000    -0.0614721  
C134     C      0.778750000000     0.737620000000     0.464660000000    -0.0563051  
C135     C      0.888160000000     0.674180000000     0.529130000000     0.110929   
C136     C      0.833240000000     0.618460000000     0.517170000000     0.0232298  
C137     C      0.730780000000     0.773060000000     0.528080000000    -0.0561457  
C138     C      0.881380000000     0.681170000000     0.616500000000     0.0378972  
C139     C      0.145710000000     0.304300000000     0.499170000000    -0.0468247  
C140     C      0.353500000000     0.206470000000     0.505450000000    -0.0447046  
C141     C      0.331800000000     0.119260000000     0.519720000000     0.0235193  
C142     C      0.386620000000     0.176280000000     0.522100000000     0.0312497  
C143     C      0.260690000000     0.245950000000     0.540830000000    -0.0544306  
C144     C      0.238360000000     0.262290000000     0.458470000000    -0.0538384  
C145     C      0.280470000000     0.224140000000     0.508620000000     0.0600185  
C146     C      0.301540000000     0.151740000000     0.502490000000    -0.0417606  
C147     C      0.218160000000     0.283600000000     0.490670000000     0.0606757  
C148     C      0.198990000000     0.356950000000     0.487920000000    -0.063509   
C149     C      0.229960000000     0.275650000000     0.532050000000    -0.0566968  
C150     C      0.167840000000     0.386700000000     0.467100000000     0.117954   
C151     C      0.112010000000     0.332500000000     0.480380000000     0.0390159  
C152     C      0.269380000000     0.233000000000     0.467180000000    -0.0563638  
C153     C      0.171730000000     0.373870000000     0.380280000000     0.023846   
C154     C      0.152860000000     0.705970000000     0.495320000000    -0.0440806  
C155     C      0.358290000000     0.805420000000     0.508390000000    -0.0408371  
C156     C      0.335270000000     0.892570000000     0.495430000000     0.0203839  
C157     C      0.391520000000     0.836060000000     0.493550000000     0.0210858  
C158     C      0.268750000000     0.767360000000     0.463700000000    -0.054134   
C159     C      0.242310000000     0.744200000000     0.543200000000    -0.0537852  
C160     C      0.286280000000     0.786620000000     0.498620000000     0.0612067  
C161     C      0.305140000000     0.858790000000     0.510000000000    -0.0405778  
C162     C      0.224470000000     0.725280000000     0.508290000000     0.0618227  
C163     C      0.205700000000     0.652470000000     0.501160000000    -0.0673467  
C164     C      0.238150000000     0.736770000000     0.468360000000    -0.0566682  
C165     C      0.174580000000     0.620080000000     0.517370000000     0.126081   
C166     C      0.118640000000     0.676510000000     0.510330000000     0.030213   
C167     C      0.273090000000     0.774560000000     0.538560000000    -0.0564155  
C168     C      0.182800000000     0.612820000000     0.604610000000     0.0434625  
C169     C      0.697260000000     0.492620000000     0.159150000000    -0.0447877  
C170     C      0.858120000000     0.536800000000     0.307480000000    -0.044569   
C171     C      0.834560000000     0.499390000000     0.386740000000     0.0275022  
C172     C      0.883950000000     0.546300000000     0.346060000000     0.0316156  
C173     C      0.742890000000     0.525480000000     0.293890000000    -0.0538858  
C174     C      0.768440000000     0.526910000000     0.211170000000    -0.0532292  
C175     C      0.785590000000     0.524940000000     0.284830000000     0.0602703  
C176     C      0.813460000000     0.489470000000     0.345530000000    -0.0433165  
C177     C      0.725740000000     0.526440000000     0.220240000000     0.0605818  
C178     C      0.653330000000     0.540060000000     0.198060000000    -0.0674991  
C179     C      0.713340000000     0.524610000000     0.262290000000    -0.0545195  
C180     C      0.627040000000     0.550220000000     0.159710000000     0.126119   
C181     C      0.675790000000     0.503110000000     0.118270000000     0.031881   
C182     C      0.797990000000     0.524610000000     0.242730000000    -0.0550101  
C183     C      0.646630000000     0.630750000000     0.129370000000     0.038638   
C184     C      0.148160000000     0.500620000000     0.303190000000    -0.0481101  
C185     C      0.321370000000     0.464640000000     0.164420000000    -0.0470018  
C186     C      0.385570000000     0.528380000000     0.164550000000     0.0375903  
C187     C      0.342750000000     0.475550000000     0.123400000000     0.0357605  
C188     C      0.244700000000     0.491290000000     0.212800000000    -0.0530922  
C189     C      0.265010000000     0.508290000000     0.295170000000    -0.0527114  
C190     C      0.286610000000     0.498760000000     0.222960000000     0.0587642  
C191     C      0.358600000000     0.517740000000     0.202250000000    -0.0470246  
C192     C      0.223300000000     0.499520000000     0.285270000000     0.0597575  
C193     C      0.198210000000     0.476280000000     0.353150000000    -0.0687348  
C194     C      0.213850000000     0.490030000000     0.243380000000    -0.0544696  
C195     C      0.172880000000     0.492030000000     0.390330000000     0.127809   
C196     C      0.117280000000     0.512830000000     0.337430000000     0.0407532  
C197     C      0.296310000000     0.506260000000     0.265170000000    -0.0539041  
C198     C      0.205260000000     0.569280000000     0.418090000000     0.0358632  
C199     C      0.203410000000     0.478220000000     0.653980000000    -0.0464814  
C200     C      0.303390000000     0.483800000000     0.859100000000    -0.0443599  
C201     C      0.390090000000     0.473900000000     0.834170000000     0.025731   
C202     C      0.335180000000     0.468800000000     0.891060000000     0.0319329  
C203     C      0.265450000000     0.442300000000     0.767860000000    -0.0545417  
C204     C      0.240510000000     0.522850000000     0.745510000000    -0.0535156  
C205     C      0.283830000000     0.476890000000     0.787070000000     0.0616674  
C206     C      0.355760000000     0.488780000000     0.805070000000    -0.0424031  
C207     C      0.222530000000     0.488300000000     0.725930000000     0.0618352  
C208     C      0.150220000000     0.480490000000     0.706950000000    -0.0633115  
C209     C      0.234860000000     0.447810000000     0.737580000000    -0.0565971  
C210     C      0.117510000000     0.498020000000     0.677120000000     0.114428   
C211     C      0.174050000000     0.494790000000     0.620550000000     0.036877   
C212     C      0.270870000000     0.517350000000     0.775970000000    -0.0565878  
C213     C      0.104850000000     0.583980000000     0.692880000000     0.0396749  
C214     C      0.702650000000     0.513190000000     0.854480000000    -0.0417365  
C215     C      0.803640000000     0.506810000000     0.649960000000    -0.0400904  
C216     C      0.890250000000     0.519560000000     0.673770000000     0.0140472  
C217     C      0.834800000000     0.522100000000     0.617460000000     0.019455   
C218     C      0.764140000000     0.548860000000     0.740170000000    -0.0541552  
C219     C      0.741540000000     0.468110000000     0.764170000000    -0.0534646  
C220     C      0.784010000000     0.514500000000     0.721970000000     0.0612005  
C221     C      0.856450000000     0.504560000000     0.703670000000    -0.0381687  
C222     C      0.722000000000     0.502460000000     0.782670000000     0.0612078  
C223     C      0.649320000000     0.509030000000     0.801630000000    -0.0627812  
C224     C      0.733280000000     0.543030000000     0.770200000000    -0.0563313  
C225     C      0.616710000000     0.492670000000     0.832470000000     0.11341    
C226     C      0.673350000000     0.497210000000     0.888300000000     0.0235084  
C227     C      0.772210000000     0.473920000000     0.733960000000    -0.056472   
C228     C      0.604440000000     0.405970000000     0.821150000000     0.0309806  
C229     C      0.698820000000     0.657850000000     0.994810000000    -0.0319368  
C230     C      0.799920000000     0.864460000000     0.988050000000    -0.025056   
C231     C      0.884350000000     0.839520000000     0.010440000000    -0.00165578 
C232     C      0.830030000000     0.897530000000     0.004870000000     0.000558736
C233     C      0.756040000000     0.775220000000     0.031310000000    -0.0625706  
C234     C      0.738600000000     0.748220000000     0.950580000000    -0.0531427  
C235     C      0.777890000000     0.792680000000     0.997850000000     0.0735461  
C236     C      0.851290000000     0.809730000000     0.993300000000    -0.0162219  
C237     C      0.717060000000     0.730470000000     0.984080000000     0.0678755  
C238     C      0.644340000000     0.709670000000     0.987820000000    -0.051252   
C239     C      0.725840000000     0.744450000000     0.024630000000    -0.0620609  
C240     C      0.613130000000     0.677280000000     0.971210000000     0.105851   
C241     C      0.670360000000     0.622960000000     0.978890000000     0.0201384  
C242     C      0.768720000000     0.779080000000     0.957240000000    -0.0590736  
C243     C      0.608920000000     0.683020000000     0.883650000000     0.032631   
C244     C      0.711220000000     0.367400000000     0.012890000000    -0.0528208  
C245     C      0.807930000000     0.160680000000     0.009110000000    -0.0665451  
C246     C      0.896230000000     0.181250000000     0.002360000000     0.0278702  
C247     C      0.838210000000     0.127390000000     0.993660000000     0.0500545  
C248     C      0.774400000000     0.254900000000     0.973430000000    -0.0456838  
C249     C      0.750650000000     0.274500000000     0.054750000000    -0.0540877  
C250     C      0.792830000000     0.234030000000     0.006880000000     0.0486194  
C251     C      0.863310000000     0.211110000000     0.018760000000    -0.0492578  
C252     C      0.732420000000     0.295540000000     0.021330000000     0.0549386  
C253     C      0.659530000000     0.312110000000     0.016350000000    -0.0760216  
C254     C      0.744190000000     0.285320000000     0.980450000000    -0.0506872  
C255     C      0.626270000000     0.341800000000     0.033170000000     0.126743   
C256     C      0.680470000000     0.399700000000     0.029280000000     0.0310993  
C257     C      0.780500000000     0.243780000000     0.047730000000    -0.0535809  
C258     C      0.619190000000     0.332500000000     0.120310000000     0.0336746  
C259     C      0.297520000000     0.645050000000     0.007190000000    -0.0559386  
C260     C      0.199090000000     0.849320000000     0.027430000000    -0.0429728  
C261     C      0.110310000000     0.829820000000     0.024590000000     0.0165771  
C262     C      0.169330000000     0.883300000000     0.013010000000     0.0254311  
C263     C      0.229450000000     0.758770000000     0.982080000000    -0.0473938  
C264     C      0.259950000000     0.733030000000     0.059320000000    -0.0526583  
C265     C      0.213410000000     0.776310000000     0.018520000000     0.055035   
C266     C      0.144160000000     0.799120000000     0.037570000000    -0.0398778  
C267     C      0.275980000000     0.715490000000     0.022870000000     0.0544974  
C268     C      0.348430000000     0.700830000000     0.010030000000    -0.0720871  
C269     C      0.260680000000     0.728690000000     0.984080000000    -0.0493122  
C270     C      0.383430000000     0.671020000000     0.022520000000     0.116274   
C271     C      0.329810000000     0.612230000000     0.018850000000     0.0407821  
C272     C      0.228990000000     0.763420000000     0.057310000000    -0.0559631  
C273     C      0.396630000000     0.675350000000     0.109310000000     0.0349747  
C274     C      0.308640000000     0.354100000000     0.035210000000    -0.0455441  
C275     C      0.210020000000     0.145720000000     0.025790000000    -0.0535523  
C276     C      0.123750000000     0.172160000000     0.014060000000     0.0281299  
C277     C      0.175170000000     0.114970000000     0.036770000000     0.0336838  
C278     C      0.241390000000     0.240770000000     0.066030000000    -0.0530933  
C279     C      0.281650000000     0.257180000000     0.990820000000    -0.0470018  
C280     C      0.229840000000     0.218480000000     0.030310000000     0.0523019  
C281     C      0.161750000000     0.199170000000     0.004500000000    -0.0521301  
C282     C      0.292390000000     0.280220000000     0.026220000000     0.0540093  
C283     C      0.363200000000     0.302910000000     0.041790000000    -0.066417   
C284     C      0.272640000000     0.271230000000     0.064210000000    -0.0562369  
C285     C      0.396510000000     0.332210000000     0.023860000000     0.120094   
C286     C      0.338800000000     0.387610000000     0.019410000000     0.0295884  
C287     C      0.250870000000     0.226440000000     0.992740000000    -0.0490001  
C288     C      0.409630000000     0.308850000000     0.940160000000     0.0447737  
C289     C      0.710720000000     0.997090000000     0.646660000000    -0.0158705  
C290     C      0.809770000000     0.004640000000     0.853440000000    -0.0702251  
C291     C      0.896380000000     0.986020000000     0.833890000000     0.0395053  
C292     C      0.838770000000     0.989170000000     0.887920000000     0.0439626  
C293     C      0.771720000000     0.961120000000     0.762790000000    -0.0628052  
C294     C      0.753190000000     0.042070000000     0.736190000000    -0.0444084  
C295     C      0.792470000000     0.995050000000     0.780870000000     0.0756906  
C296     C      0.864660000000     0.001630000000     0.801960000000    -0.0686081  
C297     C      0.732390000000     0.008160000000     0.718170000000     0.0454102  
C298     C      0.659040000000     0.004460000000     0.700960000000    -0.0723592  
C299     C      0.741860000000     0.967480000000     0.731760000000    -0.0394892  
C300     C      0.626440000000     0.021700000000     0.670600000000     0.111743   
C301     C      0.680570000000     0.013220000000     0.613360000000     0.00924105 
C302     C      0.782940000000     0.035730000000     0.767280000000    -0.072611   
C303     C      0.623380000000     0.109680000000     0.676940000000     0.0322573  
C304     C      0.310470000000     0.001220000000     0.655870000000    -0.0703684  
C305     C      0.210060000000     0.997080000000     0.862090000000    -0.0141883  
C306     C      0.125000000000     0.017050000000     0.837530000000     0.0189836  
C307     C      0.179500000000     0.013560000000     0.894820000000     0.00380341 
C308     C      0.252840000000     0.039300000000     0.772190000000    -0.0448942  
C309     C      0.271230000000     0.957950000000     0.746780000000    -0.0624158  
C310     C      0.231460000000     0.005750000000     0.790280000000     0.0446062  
C311     C      0.158190000000     0.000390000000     0.807700000000    -0.0508561  
C312     C      0.292300000000     0.991520000000     0.728400000000     0.0763174  
C313     C      0.364990000000     0.995540000000     0.707560000000    -0.0489892  
C314     C      0.283040000000     0.032390000000     0.741590000000    -0.0732804  
C315     C      0.396290000000     0.978340000000     0.675650000000     0.105864   
C316     C      0.339040000000     0.984820000000     0.621410000000     0.0468707  
C317     C      0.241130000000     0.964840000000     0.777470000000    -0.0392205  
C318     C      0.400560000000     0.890540000000     0.683160000000     0.0343204  
C319     C      0.144620000000     0.034770000000     0.208560000000    -0.0455899  
C320     C      0.349340000000     0.022530000000     0.309800000000    -0.0570624  
C321     C      0.329340000000     0.033740000000     0.397470000000     0.0266596  
C322     C      0.383660000000     0.035460000000     0.340090000000     0.0352377  
C323     C      0.259170000000     0.068080000000     0.274110000000    -0.0527967  
C324     C      0.233620000000     0.988370000000     0.249690000000    -0.0447931  
C325     C      0.276950000000     0.032900000000     0.292990000000     0.050218   
C326     C      0.297510000000     0.020910000000     0.364480000000    -0.054251   
C327     C      0.215960000000     0.023490000000     0.230740000000     0.0519556  
C328     C      0.199540000000     0.031900000000     0.157550000000    -0.0663344  
C329     C      0.228920000000     0.063550000000     0.243160000000    -0.0560268  
C330     C      0.170910000000     0.013920000000     0.123870000000     0.118063   
C331     C      0.112170000000     0.018020000000     0.177990000000     0.0280574  
C332     C      0.263880000000     0.992870000000     0.280490000000    -0.0468328  
C333     C      0.187360000000     0.927700000000     0.114330000000     0.0361548  
C334     C      0.849120000000     0.015260000000     0.200870000000    -0.0588092  
C335     C      0.645600000000     0.044690000000     0.302150000000    -0.0441382  
C336     C      0.670160000000     0.021390000000     0.386460000000     0.0249929  
C337     C      0.611780000000     0.030010000000     0.332300000000     0.0241438  
C338     C      0.729420000000     0.992920000000     0.258330000000    -0.0454165  
C339     C      0.764500000000     0.070540000000     0.239760000000    -0.0522699  
C340     C      0.715790000000     0.028480000000     0.279710000000     0.0512905  
C341     C      0.700070000000     0.036720000000     0.352910000000    -0.0443908  
C342     C      0.778640000000     0.034860000000     0.218900000000     0.0505279  
C343     C      0.798730000000     0.028730000000     0.146460000000    -0.0755047  
C344     C      0.760460000000     0.995960000000     0.228060000000    -0.0470385  
C345     C      0.832730000000     0.041680000000     0.115470000000     0.118249   
C346     C      0.885590000000     0.026890000000     0.172570000000     0.0397134  
C347     C      0.733250000000     0.067540000000     0.269860000000    -0.0557741  
C348     C      0.838180000000     0.129720000000     0.112550000000     0.032496   
C349     C      0.029910000000     0.145170000000     0.799370000000    -0.0388104  
C350     C      0.015370000000     0.349300000000     0.699450000000    -0.0526931  
C351     C      0.029480000000     0.330840000000     0.611890000000     0.0356174  
C352     C      0.028490000000     0.384290000000     0.670250000000     0.0232192  
C353     C      0.986750000000     0.262690000000     0.725750000000    -0.0470166  
C354     C      0.056750000000     0.229880000000     0.765790000000    -0.0563256  
C355     C      0.026760000000     0.276970000000     0.715040000000     0.0510068  
C356     C      0.016530000000     0.298110000000     0.643760000000    -0.057188   
C357     C      0.016720000000     0.215730000000     0.776440000000     0.0529432  
C358     C      0.022230000000     0.200660000000     0.849770000000    -0.0654565  
C359     C      0.981940000000     0.232210000000     0.756190000000    -0.0451336  
C360     C      0.004590000000     0.171330000000     0.882860000000     0.117458   
C361     C      0.013610000000     0.112350000000     0.829580000000     0.0120957  
C362     C      0.061600000000     0.260290000000     0.735160000000    -0.0532149  
C363     C      0.917190000000     0.181160000000     0.886760000000     0.0420731  
C364     C      0.994460000000     0.852130000000     0.810400000000    -0.00887842 
C365     C      0.003790000000     0.644450000000     0.711450000000    -0.0682242  
C366     C      0.996930000000     0.670470000000     0.624780000000     0.0414961  
C367     C      0.989870000000     0.612380000000     0.678940000000     0.0393099  
C368     C      0.960460000000     0.736440000000     0.748650000000    -0.0623036  
C369     C      0.039480000000     0.758850000000     0.777250000000    -0.044266   
C370     C      0.995670000000     0.716820000000     0.731880000000     0.076803   
C371     C      0.010600000000     0.699070000000     0.660260000000    -0.0588852  
C372     C      0.004350000000     0.778930000000     0.793530000000     0.0464272  
C373     C      0.993260000000     0.800570000000     0.865150000000    -0.0323992  
C374     C      0.964610000000     0.767150000000     0.779330000000    -0.0398035  
C375     C      0.009680000000     0.831560000000     0.897710000000     0.0900759  
C376     C      0.009720000000     0.886420000000     0.839890000000    -0.00814922 
C377     C      0.035330000000     0.727990000000     0.746800000000    -0.0724138  
C378     C      0.095590000000     0.816880000000     0.910170000000     0.0402225  
C379     C      0.001260000000     0.712840000000     0.366910000000    -0.0559012  
C380     C      0.004750000000     0.809130000000     0.159990000000    -0.0726085  
C381     C      0.983420000000     0.895610000000     0.178400000000     0.0476764  
C382     C      0.988220000000     0.837000000000     0.125250000000     0.0499835  
C383     C      0.962930000000     0.771380000000     0.250900000000    -0.0641924  
C384     C      0.044420000000     0.756080000000     0.277340000000    -0.0443119  
C385     C      0.996000000000     0.793060000000     0.232590000000     0.0768558  
C386     C      0.000160000000     0.865020000000     0.210650000000    -0.0726647  
C387     C      0.011380000000     0.734310000000     0.295530000000     0.0451734  
C388     C      0.010470000000     0.660960000000     0.312620000000    -0.0783458  
C389     C      0.970430000000     0.742100000000     0.282120000000    -0.0389345  
C390     C      0.028830000000     0.629220000000     0.343040000000     0.126131   
C391     C      0.018300000000     0.683270000000     0.400090000000     0.0319703  
C392     C      0.036940000000     0.785240000000     0.246040000000    -0.0734555  
C393     C      0.116660000000     0.631470000000     0.337610000000     0.0373866  
C394     C      0.013320000000     0.157630000000     0.200240000000    -0.0594998  
C395     C      0.032560000000     0.364610000000     0.301090000000    -0.0431988  
C396     C      0.010900000000     0.339620000000     0.385660000000     0.0226191  
C397     C      0.016640000000     0.398030000000     0.331390000000     0.0209978  
C398     C      0.986140000000     0.277800000000     0.256610000000    -0.0451199  
C399     C      0.065150000000     0.245140000000     0.240660000000    -0.0523797  
C400     C      0.020420000000     0.293090000000     0.278910000000     0.0503139  
C401     C      0.027180000000     0.309920000000     0.352180000000    -0.0436374  
C402     C      0.030740000000     0.229200000000     0.219070000000     0.0499287  
C403     C      0.030140000000     0.207790000000     0.146360000000    -0.0752107  
C404     C      0.991140000000     0.246330000000     0.226780000000    -0.0471063  
C405     C      0.046710000000     0.173450000000     0.117280000000     0.119432   
C406     C      0.027600000000     0.120960000000     0.173000000000     0.0423533  
C407     C      0.060220000000     0.276900000000     0.270170000000    -0.0556577  
C408     C      0.134210000000     0.169270000000     0.126130000000     0.0311289  
H1       H      0.972520000000     0.977980000000     0.036420000000    -1.23582    
H2       H      0.029400000000     0.030340000000     0.030090000000    -1.0408     
H3       H      0.970610000000     0.075860000000     0.965090000000    -0.513681   
H4       H      0.074690000000     0.963940000000     0.971550000000    -0.483322   
H5       H      0.974240000000     0.536680000000     0.475850000000    -1.25162    
H6       H      0.028030000000     0.481000000000     0.479820000000    -1.0649     
H7       H      0.964800000000     0.433350000000     0.540290000000    -0.501457   
H8       H      0.074140000000     0.539930000000     0.544390000000    -0.551416   
H9       H      0.473880000000     0.978550000000     0.472280000000    -1.24033    
H10      H      0.528520000000     0.032710000000     0.480590000000    -1.05957    
H11      H      0.576660000000     0.965360000000     0.536280000000    -0.496575   
H12      H      0.468520000000     0.073350000000     0.547960000000    -0.547791   
H13      H      0.535190000000     0.473290000000     0.975630000000    -1.25462    
H14      H      0.481380000000     0.482500000000     0.030230000000    -1.09703    
H15      H      0.432220000000     0.537210000000     0.963320000000    -0.491028   
H16      H      0.541760000000     0.550770000000     0.068390000000    -0.582037   
H17      H      0.433900000000     0.298260000000     0.238030000000     0.0391398  
H18      H      0.507090000000     0.159560000000     0.281750000000     0.0360686  
H19      H      0.496040000000     0.247970000000     0.378980000000     0.0477724  
H20      H      0.531840000000     0.339720000000     0.120800000000     0.0280457  
H21      H      0.473210000000     0.120820000000     0.335370000000     0.0252885  
H22      H      0.497350000000     0.383990000000     0.245370000000     0.0361632  
H23      H      0.498120000000     0.285400000000     0.157930000000     0.0365406  
H24      H      0.478320000000     0.434410000000     0.186540000000     0.0284105  
H25      H      0.513090000000     0.191000000000     0.431310000000     0.0187479  
H26      H      0.431680000000     0.243060000000     0.291000000000     0.0451425  
H27      H      0.526330000000     0.104070000000     0.334480000000     0.0264882  
H28      H      0.567870000000     0.298950000000     0.244500000000     0.0441181  
H29      H      0.551240000000     0.171780000000     0.313880000000     0.038143   
H30      H      0.479880000000     0.337450000000     0.101270000000     0.0288463  
H31      H      0.451170000000     0.371230000000     0.216410000000     0.0363626  
H32      H      0.451720000000     0.315660000000     0.166530000000     0.0357565  
H33      H      0.565590000000     0.244310000000     0.298080000000     0.0405551  
H34      H      0.544300000000     0.221690000000     0.370140000000     0.0463966  
H35      H      0.530710000000     0.415720000000     0.187490000000     0.0243954  
H36      H      0.437780000000     0.742670000000     0.203330000000     0.0408618  
H37      H      0.496760000000     0.783090000000     0.346950000000     0.0362208  
H38      H      0.493140000000     0.883960000000     0.261730000000     0.0480474  
H39      H      0.542730000000     0.630570000000     0.167020000000     0.0294202  
H40      H      0.458890000000     0.836290000000     0.383190000000     0.0281432  
H41      H      0.507380000000     0.751810000000     0.123320000000     0.036629   
H42      H      0.505320000000     0.664490000000     0.222140000000     0.0362215  
H43      H      0.490170000000     0.693320000000     0.072830000000     0.0379333  
H44      H      0.505190000000     0.934220000000     0.320980000000     0.0139153  
H45      H      0.429640000000     0.794410000000     0.258890000000     0.0460779  
H46      H      0.509850000000     0.833230000000     0.405630000000     0.0333484  
H47      H      0.571240000000     0.752370000000     0.213810000000     0.0443955  
H48      H      0.541740000000     0.816030000000     0.340170000000     0.0376949  
H49      H      0.492450000000     0.606680000000     0.171810000000     0.0283326  
H50      H      0.460380000000     0.723530000000     0.134420000000     0.0402688  
H51      H      0.459620000000     0.671630000000     0.190350000000     0.0391311  
H52      H      0.563040000000     0.804610000000     0.269030000000     0.0401298  
H53      H      0.539090000000     0.874290000000     0.291960000000     0.0425954  
H54      H      0.541430000000     0.692230000000     0.094680000000     0.031008   
H55      H      0.441630000000     0.772430000000     0.704850000000     0.0410021  
H56      H      0.501960000000     0.625530000000     0.760480000000     0.0361826  
H57      H      0.490520000000     0.725890000000     0.845490000000     0.0493841  
H58      H      0.544320000000     0.820740000000     0.596050000000     0.0301108  
H59      H      0.462840000000     0.596550000000     0.817260000000     0.0332716  
H60      H      0.517250000000     0.849140000000     0.724010000000     0.037414   
H61      H      0.504930000000     0.763630000000     0.624450000000     0.0352973  
H62      H      0.502990000000     0.908680000000     0.674580000000     0.0417107  
H63      H      0.504120000000     0.675650000000     0.904720000000     0.0269037  
H64      H      0.432200000000     0.717900000000     0.757590000000     0.0463078  
H65      H      0.514560000000     0.575870000000     0.820070000000     0.0352856  
H66      H      0.574740000000     0.760120000000     0.715960000000     0.0440818  
H67      H      0.545060000000     0.639320000000     0.793540000000     0.0379379  
H68      H      0.492710000000     0.823400000000     0.575110000000     0.0357804  
H69      H      0.468820000000     0.845380000000     0.696360000000     0.0408825  
H70      H      0.461870000000     0.796910000000     0.638190000000     0.0384544  
H71      H      0.565310000000     0.706240000000     0.769380000000     0.0405501  
H72      H      0.538010000000     0.696960000000     0.842220000000     0.0452652  
H73      H      0.551950000000     0.882930000000     0.667560000000     0.0336421  
H74      H      0.437620000000     0.201460000000     0.751110000000     0.0445254  
H75      H      0.527440000000     0.262960000000     0.882100000000     0.0373632  
H76      H      0.481850000000     0.342050000000     0.786800000000     0.0478505  
H77      H      0.474410000000     0.172610000000     0.623250000000     0.0258418  
H78      H      0.487910000000     0.312730000000     0.920260000000     0.0309984  
H79      H      0.511570000000     0.127860000000     0.746840000000     0.0359977  
H80      H      0.506080000000     0.227810000000     0.661010000000     0.0360818  
H81      H      0.531780000000     0.079280000000     0.687690000000     0.0381925  
H82      H      0.490670000000     0.404270000000     0.833620000000     0.0228926  
H83      H      0.436280000000     0.252810000000     0.807880000000     0.0470382  
H84      H      0.541180000000     0.327120000000     0.926940000000     0.0243039  
H85      H      0.569650000000     0.220980000000     0.737030000000     0.0399401  
H86      H      0.560360000000     0.302400000000     0.859310000000     0.0371414  
H87      H      0.526160000000     0.177560000000     0.603270000000     0.0258385  
H88      H      0.556960000000     0.143190000000     0.717890000000     0.0397449  
H89      H      0.553820000000     0.199260000000     0.668660000000     0.0379258  
H90      H      0.567950000000     0.273460000000     0.792310000000     0.0401035  
H91      H      0.533610000000     0.348300000000     0.806800000000     0.0440869  
H92      H      0.478830000000     0.096420000000     0.688760000000     0.0312189  
H93      H      0.785780000000     0.287790000000     0.422330000000     0.039849   
H94      H      0.733200000000     0.145710000000     0.479400000000     0.0359427  
H95      H      0.638120000000     0.236730000000     0.466090000000     0.0460743  
H96      H      0.888310000000     0.330160000000     0.534820000000     0.0263292  
H97      H      0.677980000000     0.112740000000     0.440300000000     0.0258411  
H98      H      0.767500000000     0.369220000000     0.488710000000     0.0354969  
H99      H      0.858850000000     0.274200000000     0.495390000000     0.0362176  
H100     H      0.824250000000     0.422980000000     0.479630000000     0.0337898  
H101     H      0.583640000000     0.181590000000     0.476970000000     0.0211184  
H102     H      0.733180000000     0.233270000000     0.411240000000     0.0446907  
H103     H      0.679950000000     0.090250000000     0.491380000000     0.0288903  
H104     H      0.764110000000     0.281690000000     0.554410000000     0.0437694  
H105     H      0.699160000000     0.156330000000     0.522710000000     0.0382993  
H106     H      0.915090000000     0.328360000000     0.486030000000     0.0282126  
H107     H      0.801780000000     0.359950000000     0.445350000000     0.0372556  
H108     H      0.854060000000     0.305610000000     0.449170000000     0.0380185  
H109     H      0.711210000000     0.227600000000     0.543310000000     0.0397523  
H110     H      0.643130000000     0.209140000000     0.514440000000     0.0416763  
H111     H      0.821550000000     0.399500000000     0.530110000000     0.0283228  
H112     H      0.712700000000     0.786560000000     0.553060000000     0.0405051  
H113     H      0.772400000000     0.643730000000     0.503950000000     0.036058   
H114     H      0.864080000000     0.737350000000     0.521430000000     0.0474848  
H115     H      0.619240000000     0.832170000000     0.434510000000     0.0274176  
H116     H      0.823300000000     0.613040000000     0.549810000000     0.0337437  
H117     H      0.736830000000     0.866580000000     0.484410000000     0.0366243  
H118     H      0.644010000000     0.773110000000     0.474330000000     0.0356287  
H119     H      0.682190000000     0.921640000000     0.489920000000     0.0302422  
H120     H      0.920350000000     0.682670000000     0.519780000000     0.0222433  
H121     H      0.765040000000     0.733240000000     0.569510000000     0.0459262  
H122     H      0.827810000000     0.589030000000     0.499710000000     0.0339927  
H123     H      0.744320000000     0.777320000000     0.423190000000     0.0436893  
H124     H      0.810490000000     0.653190000000     0.463920000000     0.0367643  
H125     H      0.588180000000     0.827430000000     0.480570000000     0.0337859  
H126     H      0.701510000000     0.858370000000     0.527180000000     0.0396415  
H127     H      0.647230000000     0.803530000000     0.521350000000     0.0385264  
H128     H      0.797080000000     0.724280000000     0.439770000000     0.0398402  
H129     H      0.864210000000     0.706600000000     0.474780000000     0.0412312  
H130     H      0.682320000000     0.895040000000     0.440880000000     0.0246934  
H131     H      0.284510000000     0.217180000000     0.441620000000     0.0403717  
H132     H      0.137010000000     0.271200000000     0.493280000000     0.0352355  
H133     H      0.230710000000     0.362760000000     0.475160000000     0.0461792  
H134     H      0.325650000000     0.115190000000     0.553480000000     0.0262658  
H135     H      0.106330000000     0.322630000000     0.447740000000     0.0262012  
H136     H      0.360520000000     0.238220000000     0.517610000000     0.036665   
H137     H      0.269430000000     0.142780000000     0.511910000000     0.0347376  
H138     H      0.417040000000     0.184590000000     0.507890000000     0.031052   
H139     H      0.176850000000     0.419260000000     0.474760000000     0.0203103  
H140     H      0.229970000000     0.268470000000     0.426460000000     0.0453518  
H141     H      0.082710000000     0.327340000000     0.498000000000     0.0288532  
H142     H      0.269150000000     0.239840000000     0.572820000000     0.0432478  
H143     H      0.146710000000     0.309280000000     0.533400000000     0.0369757  
H144     H      0.325170000000     0.088950000000     0.504250000000     0.0340405  
H145     H      0.355370000000     0.207730000000     0.470980000000     0.040445   
H146     H      0.303160000000     0.151180000000     0.467920000000     0.0383246  
H147     H      0.215330000000     0.292210000000     0.557460000000     0.039551   
H148     H      0.200100000000     0.363480000000     0.521900000000     0.0417793  
H149     H      0.389560000000     0.180920000000     0.556220000000     0.0250222  
H150     H      0.286430000000     0.788710000000     0.566040000000     0.0407672  
H151     H      0.144210000000     0.738390000000     0.504260000000     0.0366126  
H152     H      0.237380000000     0.645150000000     0.513240000000     0.0480743  
H153     H      0.329430000000     0.899050000000     0.461980000000     0.0278064  
H154     H      0.111320000000     0.683900000000     0.543300000000     0.0308352  
H155     H      0.366430000000     0.773800000000     0.496570000000     0.0356294  
H156     H      0.273300000000     0.867300000000     0.499340000000     0.0360916  
H157     H      0.421140000000     0.828470000000     0.509750000000     0.0353021  
H158     H      0.182670000000     0.589490000000     0.503240000000     0.0160632  
H159     H      0.232220000000     0.735370000000     0.574080000000     0.0462181  
H160     H      0.090130000000     0.682820000000     0.491760000000     0.033567   
H161     H      0.278830000000     0.776190000000     0.432820000000     0.0443063  
H162     H      0.154750000000     0.704510000000     0.460790000000     0.0392225  
H163     H      0.328220000000     0.921680000000     0.512910000000     0.0367764  
H164     H      0.358400000000     0.804250000000     0.542990000000     0.038708   
H165     H      0.305010000000     0.857910000000     0.544600000000     0.038951   
H166     H      0.225090000000     0.722260000000     0.440940000000     0.0411178  
H167     H      0.207170000000     0.650510000000     0.466630000000     0.0444433  
H168     H      0.396740000000     0.831280000000     0.459720000000     0.0280136  
H169     H      0.830320000000     0.523900000000     0.233560000000     0.0390439  
H170     H      0.729600000000     0.482860000000     0.151730000000     0.0348689  
H171     H      0.652820000000     0.567380000000     0.219490000000     0.0470164  
H172     H      0.815970000000     0.523310000000     0.403570000000     0.0286443  
H173     H      0.694300000000     0.527160000000     0.101550000000     0.0321682  
H174     H      0.859060000000     0.564960000000     0.287260000000     0.0350048  
H175     H      0.780980000000     0.479830000000     0.352470000000     0.0337992  
H176     H      0.917300000000     0.547980000000     0.336980000000     0.0281554  
H177     H      0.593900000000     0.551060000000     0.169580000000     0.0166682  
H178     H      0.779000000000     0.528960000000     0.179280000000     0.0420495  
H179     H      0.674710000000     0.474610000000     0.098550000000     0.0289642  
H180     H      0.732320000000     0.526520000000     0.325820000000     0.0412472  
H181     H      0.681450000000     0.465730000000     0.174410000000     0.0405411  
H182     H      0.835360000000     0.470630000000     0.406140000000     0.0295572  
H183     H      0.872640000000     0.510170000000     0.290580000000     0.0378457  
H184     H      0.829250000000     0.462670000000     0.330110000000     0.0397837  
H185     H      0.681010000000     0.523830000000     0.271450000000     0.038721   
H186     H      0.638640000000     0.513180000000     0.214440000000     0.04171    
H187     H      0.875090000000     0.577730000000     0.357780000000     0.0183129  
H188     H      0.327700000000     0.512260000000     0.275550000000     0.0387058  
H189     H      0.142500000000     0.522140000000     0.276660000000     0.0364156  
H190     H      0.231440000000     0.474530000000     0.362560000000     0.0463993  
H191     H      0.375560000000     0.559220000000     0.152200000000     0.0211823  
H192     H      0.115550000000     0.547370000000     0.338880000000     0.0299992  
H193     H      0.290740000000     0.450640000000     0.156710000000     0.0331569  
H194     H      0.355760000000     0.546880000000     0.220830000000     0.0358603  
H195     H      0.348080000000     0.446410000000     0.105380000000     0.0200151  
H196     H      0.176300000000     0.469280000000     0.416090000000     0.0200591  
H197     H      0.273570000000     0.517270000000     0.326440000000     0.0439818  
H198     H      0.085900000000     0.501640000000     0.328020000000     0.0282756  
H199     H      0.235470000000     0.486910000000     0.180760000000     0.040142   
H200     H      0.141390000000     0.468110000000     0.292890000000     0.0359421  
H201     H      0.418290000000     0.532130000000     0.175150000000     0.0299734  
H202     H      0.339700000000     0.440540000000     0.181390000000     0.0380993  
H203     H      0.374780000000     0.493700000000     0.221370000000     0.0372223  
H204     H      0.182590000000     0.483070000000     0.233220000000     0.0379877  
H205     H      0.188690000000     0.443980000000     0.345020000000     0.0470107  
H206     H      0.321850000000     0.495960000000     0.104790000000     0.0271775  
H207     H      0.284400000000     0.544550000000     0.790600000000     0.041058   
H208     H      0.235700000000     0.487820000000     0.645860000000     0.0373162  
H209     H      0.142890000000     0.490460000000     0.739340000000     0.0471686  
H210     H      0.395960000000     0.440410000000     0.827960000000     0.0349617  
H211     H      0.182030000000     0.527880000000     0.614100000000     0.0326095  
H212     H      0.272510000000     0.470410000000     0.867330000000     0.0363868  
H213     H      0.363970000000     0.479240000000     0.772820000000     0.0368893  
H214     H      0.327040000000     0.482610000000     0.921670000000     0.0298949  
H215     H      0.087700000000     0.481640000000     0.683660000000     0.0193937  
H216     H      0.230990000000     0.554130000000     0.736980000000     0.0465655  
H217     H      0.179740000000     0.476960000000     0.591440000000     0.0266203  
H218     H      0.275050000000     0.411040000000     0.776300000000     0.0443467  
H219     H      0.202210000000     0.443470000000     0.654160000000     0.0370853  
H220     H      0.419020000000     0.491280000000     0.826460000000     0.0352399  
H221     H      0.301000000000     0.518460000000     0.860620000000     0.0395407  
H222     H      0.354190000000     0.523490000000     0.806100000000     0.0393774  
H223     H      0.221020000000     0.420650000000     0.723150000000     0.0397752  
H224     H      0.148880000000     0.445740000000     0.706340000000     0.0411626  
H225     H      0.332510000000     0.434330000000     0.894090000000     0.0261061  
H226     H      0.786810000000     0.446840000000     0.720140000000     0.0406487  
H227     H      0.734980000000     0.503950000000     0.862840000000     0.0368874  
H228     H      0.641880000000     0.497580000000     0.769770000000     0.0471554  
H229     H      0.895460000000     0.553470000000     0.678950000000     0.0324469  
H230     H      0.680600000000     0.463850000000     0.894550000000     0.0301752  
H231     H      0.772330000000     0.519100000000     0.641620000000     0.0356935  
H232     H      0.864660000000     0.515210000000     0.735560000000     0.0366357  
H233     H      0.826790000000     0.507370000000     0.587220000000     0.0361438  
H234     H      0.586760000000     0.508450000000     0.825140000000     0.0216486  
H235     H      0.733010000000     0.436730000000     0.773330000000     0.0456126  
H236     H      0.679980000000     0.514900000000     0.917280000000     0.0358086  
H237     H      0.772730000000     0.580230000000     0.731060000000     0.0446256  
H238     H      0.701230000000     0.547910000000     0.853570000000     0.0386881  
H239     H      0.919680000000     0.503120000000     0.681620000000     0.0391459  
H240     H      0.802250000000     0.472080000000     0.649150000000     0.0386521  
H241     H      0.855850000000     0.469810000000     0.703640000000     0.0389708  
H242     H      0.718430000000     0.570080000000     0.783820000000     0.0405221  
H243     H      0.647690000000     0.543760000000     0.800740000000     0.0424133  
H244     H      0.831190000000     0.556420000000     0.613750000000     0.0327362  
H245     H      0.785050000000     0.792030000000     0.930810000000     0.0417527  
H246     H      0.731460000000     0.649880000000     0.986400000000     0.0362452  
H247     H      0.636490000000     0.741070000000     0.975150000000     0.0469662  
H248     H      0.887170000000     0.834480000000     0.044510000000     0.0313993  
H249     H      0.677700000000     0.616980000000     0.945650000000     0.0344491  
H250     H      0.767670000000     0.873910000000     0.996450000000     0.0352211  
H251     H      0.857740000000     0.777910000000     0.005610000000     0.0263063  
H252     H      0.825170000000     0.926860000000     0.987030000000     0.0451355  
H253     H      0.582030000000     0.685120000000     0.984140000000     0.026177   
H254     H      0.732190000000     0.737860000000     0.919200000000     0.0458863  
H255     H      0.677860000000     0.594050000000     0.996440000000     0.038807   
H256     H      0.762680000000     0.785340000000     0.062720000000     0.0453032  
H257     H      0.696680000000     0.659340000000     0.029320000000     0.0336069  
H258     H      0.914760000000     0.831060000000     0.996280000000     0.047062   
H259     H      0.802120000000     0.863540000000     0.953510000000     0.0358106  
H260     H      0.853870000000     0.808510000000     0.958800000000     0.0344248  
H261     H      0.709640000000     0.731350000000     0.051070000000     0.0414064  
H262     H      0.641310000000     0.711490000000     0.022260000000     0.0368147  
H263     H      0.821960000000     0.904150000000     0.037810000000     0.0310488  
H264     H      0.793820000000     0.227610000000     0.074080000000     0.0396009  
H265     H      0.743110000000     0.376760000000     0.022630000000     0.0371223  
H266     H      0.653210000000     0.279850000000     0.027710000000     0.0474414  
H267     H      0.903410000000     0.189550000000     0.969650000000     0.0354206  
H268     H      0.686230000000     0.404250000000     0.063040000000     0.0298313  
H269     H      0.777200000000     0.155080000000     0.994130000000     0.0460857  
H270     H      0.873500000000     0.243620000000     0.011960000000     0.0362922  
H271     H      0.828630000000     0.096880000000     0.007060000000     0.0277738  
H272     H      0.596110000000     0.332510000000     0.019020000000     0.0111634  
H273     H      0.741380000000     0.281770000000     0.086290000000     0.0456381  
H274     H      0.686860000000     0.429880000000     0.013490000000     0.0313135  
H275     H      0.783340000000     0.247320000000     0.941880000000     0.043075   
H276     H      0.710000000000     0.367310000000     0.978310000000     0.0436629  
H277     H      0.925120000000     0.185860000000     0.020850000000     0.0299809  
H278     H      0.803710000000     0.157470000000     0.043240000000     0.046159   
H279     H      0.860960000000     0.207440000000     0.053090000000     0.0403315  
H280     H      0.729950000000     0.300670000000     0.954090000000     0.0395198  
H281     H      0.657570000000     0.311430000000     0.981780000000     0.0477612  
H282     H      0.835290000000     0.124860000000     0.959320000000     0.0236261  
H283     H      0.217520000000     0.777080000000     0.085840000000     0.0402612  
H284     H      0.266590000000     0.634450000000     0.018640000000     0.0373565  
H285     H      0.355110000000     0.732590000000     0.022530000000     0.0487733  
H286     H      0.098100000000     0.820430000000     0.993710000000     0.0401195  
H287     H      0.326080000000     0.604220000000     0.052270000000     0.0278907  
H288     H      0.229940000000     0.855040000000     0.012710000000     0.0352688  
H289     H      0.133370000000     0.766940000000     0.030180000000     0.0338472  
H290     H      0.178750000000     0.913240000000     0.027730000000     0.032446   
H291     H      0.412270000000     0.681320000000     0.006420000000     0.0210984  
H292     H      0.271850000000     0.723360000000     0.089290000000     0.0457876  
H293     H      0.323230000000     0.583540000000     0.000530000000     0.0242719  
H294     H      0.218000000000     0.768890000000     0.952080000000     0.0449275  
H295     H      0.295990000000     0.647630000000     0.972710000000     0.0451244  
H296     H      0.084000000000     0.827260000000     0.046930000000     0.0338434  
H297     H      0.203160000000     0.851190000000     0.061760000000     0.0391394  
H298     H      0.148880000000     0.801210000000     0.071800000000     0.0364874  
H299     H      0.273050000000     0.715980000000     0.955480000000     0.040196   
H300     H      0.347480000000     0.703370000000     0.975510000000     0.0508291  
H301     H      0.172860000000     0.887400000000     0.978860000000     0.0345234  
H302     H      0.243040000000     0.209400000000     0.964780000000     0.0390151  
H303     H      0.277280000000     0.360530000000     0.022000000000     0.0340052  
H304     H      0.372090000000     0.269820000000     0.035730000000     0.0449467  
H305     H      0.108510000000     0.184290000000     0.042380000000     0.0338509  
H306     H      0.333140000000     0.392450000000     0.985650000000     0.0331507  
H307     H      0.237410000000     0.138600000000     0.045750000000     0.0362291  
H308     H      0.152750000000     0.232510000000     0.008250000000     0.0358539  
H309     H      0.184320000000     0.083520000000     0.025370000000     0.0293929  
H310     H      0.425810000000     0.327590000000     0.041640000000     0.0136122  
H311     H      0.296950000000     0.263460000000     0.961500000000     0.046064   
H312     H      0.331170000000     0.417520000000     0.035180000000     0.0302629  
H313     H      0.225780000000     0.234790000000     0.095250000000     0.0434497  
H314     H      0.306280000000     0.356150000000     0.069680000000     0.0345629  
H315     H      0.100990000000     0.176070000000     0.988290000000     0.0334333  
H316     H      0.219460000000     0.140960000000     0.992810000000     0.0435626  
H317     H      0.170930000000     0.194290000000     0.971480000000     0.0423927  
H318     H      0.280870000000     0.288170000000     0.092110000000     0.0389666  
H319     H      0.361460000000     0.306860000000     0.076140000000     0.0400247  
H320     H      0.172770000000     0.112690000000     0.071150000000     0.0227205  
H321     H      0.798330000000     0.062520000000     0.780800000000     0.0439304  
H322     H      0.742970000000     0.005320000000     0.637090000000     0.0243358  
H323     H      0.652910000000     0.016990000000     0.732700000000     0.0476996  
H324     H      0.899890000000     0.951680000000     0.830310000000     0.0273674  
H325     H      0.688190000000     0.046360000000     0.606490000000     0.0328871  
H326     H      0.777520000000     0.994450000000     0.860980000000     0.048161   
H327     H      0.873530000000     0.989190000000     0.770900000000     0.0482425  
H328     H      0.830480000000     0.005740000000     0.917120000000     0.0257307  
H329     H      0.595650000000     0.009010000000     0.679970000000     0.0196761  
H330     H      0.746050000000     0.073550000000     0.726250000000     0.0429631  
H331     H      0.685790000000     0.995050000000     0.584380000000     0.039266   
H332     H      0.778590000000     0.929660000000     0.772980000000     0.0466596  
H333     H      0.708460000000     0.962450000000     0.648330000000     0.0340716  
H334     H      0.926970000000     0.000450000000     0.826570000000     0.0277481  
H335     H      0.810250000000     0.039390000000     0.852790000000     0.0441327  
H336     H      0.866030000000     0.036330000000     0.800550000000     0.0443421  
H337     H      0.726040000000     0.940760000000     0.718600000000     0.0374053  
H338     H      0.655840000000     0.969870000000     0.702650000000     0.0506217  
H339     H      0.833000000000     0.955330000000     0.893040000000     0.0267693  
H340     H      0.225210000000     0.938330000000     0.790920000000     0.0380376  
H341     H      0.277880000000     0.992400000000     0.648100000000     0.0477193  
H342     H      0.372920000000     0.983520000000     0.739080000000     0.0468917  
H343     H      0.122060000000     0.051330000000     0.832970000000     0.0281523  
H344     H      0.331830000000     0.951320000000     0.615930000000     0.0297982  
H345     H      0.242060000000     0.006690000000     0.871250000000     0.0247497  
H346     H      0.151260000000     0.012440000000     0.776000000000     0.0355578  
H347     H      0.185510000000     0.996910000000     0.924530000000     0.0428102  
H348     H      0.427340000000     0.991580000000     0.683200000000     0.0258026  
H349     H      0.278030000000     0.926320000000     0.737050000000     0.0486478  
H350     H      0.331520000000     0.001990000000     0.592350000000     0.0227221  
H351     H      0.245830000000     0.070950000000     0.781700000000     0.040646   
H352     H      0.312340000000     0.035920000000     0.656750000000     0.0420354  
H353     H      0.094650000000     0.002810000000     0.828920000000     0.032589   
H354     H      0.208910000000     0.962330000000     0.861760000000     0.0356992  
H355     H      0.156320000000     0.965690000000     0.806720000000     0.0467121  
H356     H      0.298900000000     0.058890000000     0.728020000000     0.0431782  
H357     H      0.367790000000     0.030180000000     0.708650000000     0.0347346  
H358     H      0.185970000000     0.047230000000     0.900170000000     0.0304695  
H359     H      0.277260000000     0.965160000000     0.294300000000     0.0395298  
H360     H      0.135190000000     0.025500000000     0.240540000000     0.0330371  
H361     H      0.232250000000     0.021960000000     0.151580000000     0.0447553  
H362     H      0.325810000000     0.067680000000     0.403810000000     0.0280766  
H363     H      0.105210000000     0.985000000000     0.186090000000     0.0333222  
H364     H      0.357060000000     0.035440000000     0.278620000000     0.037648   
H365     H      0.266390000000     0.032600000000     0.374190000000     0.0362322  
H366     H      0.412930000000     0.019650000000     0.330530000000     0.0269512  
H367     H      0.178650000000     0.029690000000     0.094070000000     0.0169818  
H368     H      0.224040000000     0.957380000000     0.240260000000     0.0453997  
H369     H      0.082900000000     0.035990000000     0.182320000000     0.0290667  
H370     H      0.269050000000     0.099060000000     0.283240000000     0.0429769  
H371     H      0.145110000000     0.069510000000     0.207130000000     0.0375198  
H372     H      0.321970000000     0.016790000000     0.426700000000     0.030138   
H373     H      0.348710000000     0.987880000000     0.307340000000     0.0482958  
H374     H      0.296100000000     0.986210000000     0.363020000000     0.046077   
H375     H      0.215850000000     0.091130000000     0.228790000000     0.0398758  
H376     H      0.198920000000     0.066640000000     0.155900000000     0.0414204  
H377     H      0.388780000000     0.069670000000     0.337270000000     0.0246429  
H378     H      0.723110000000     0.095500000000     0.285780000000     0.0398437  
H379     H      0.857980000000     0.022550000000     0.233510000000     0.0373822  
H380     H      0.769140000000     0.045100000000     0.138670000000     0.0473521  
H381     H      0.674930000000     0.987290000000     0.390930000000     0.0325296  
H382     H      0.895950000000     0.059090000000     0.180280000000     0.0276532  
H383     H      0.635530000000     0.036920000000     0.269970000000     0.0330822  
H384     H      0.731310000000     0.023030000000     0.359110000000     0.0333108  
H385     H      0.584280000000     0.050800000000     0.328960000000     0.0289887  
H386     H      0.823550000000     0.030010000000     0.084260000000     0.0169986  
H387     H      0.778050000000     0.100700000000     0.232880000000     0.0447168  
H388     H      0.911890000000     0.005430000000     0.179550000000     0.021921   
H389     H      0.716160000000     0.962700000000     0.265500000000     0.0432726  
H390     H      0.843410000000     0.981050000000     0.198590000000     0.0454444  
H391     H      0.678530000000     0.036790000000     0.416280000000     0.0318203  
H392     H      0.648930000000     0.079240000000     0.304270000000     0.0372621  
H393     H      0.702930000000     0.071320000000     0.354870000000     0.0377216  
H394     H      0.770590000000     0.967970000000     0.212200000000     0.0387369  
H395     H      0.792900000000     0.994600000000     0.143300000000     0.0495943  
H396     H      0.601660000000     0.998120000000     0.323080000000     0.0323379  
H397     H      0.092490000000     0.271280000000     0.727350000000     0.0424454  
H398     H      0.022260000000     0.135000000000     0.767180000000     0.0324497  
H399     H      0.010180000000     0.232880000000     0.854980000000     0.0450965  
H400     H      0.063610000000     0.328480000000     0.606740000000     0.0228881  
H401     H      0.981070000000     0.104330000000     0.820950000000     0.0428218  
H402     H      0.027180000000     0.356720000000     0.731130000000     0.036902   
H403     H      0.029310000000     0.267370000000     0.633930000000     0.0360404  
H404     H      0.012280000000     0.413310000000     0.680060000000     0.0332808  
H405     H      0.018010000000     0.180640000000     0.913330000000     0.0147329  
H406     H      0.084020000000     0.217700000000     0.781360000000     0.0393239  
H407     H      0.032680000000     0.083620000000     0.825750000000     0.0338932  
H408     H      0.959310000000     0.275410000000     0.710940000000     0.0394405  
H409     H      0.064390000000     0.147270000000     0.802140000000     0.0358611  
H410     H      0.013820000000     0.323460000000     0.581980000000     0.0257587  
H411     H      0.980750000000     0.348000000000     0.700790000000     0.0477975  
H412     H      0.981950000000     0.295850000000     0.644110000000     0.0472778  
H413     H      0.951010000000     0.221640000000     0.764410000000     0.0458025  
H414     H      0.056740000000     0.201990000000     0.852860000000     0.0418278  
H415     H      0.062510000000     0.389650000000     0.673740000000     0.0278021  
H416     H      0.063040000000     0.713240000000     0.734580000000     0.0443669  
H417     H      0.006030000000     0.859310000000     0.778600000000     0.0246076  
H418     H      0.002490000000     0.768230000000     0.873990000000     0.0357499  
H419     H      0.964410000000     0.678160000000     0.616330000000     0.0356211  
H420     H      0.043410000000     0.891850000000     0.834140000000     0.0422231  
H421     H      0.989690000000     0.635790000000     0.741840000000     0.0484972  
H422     H      0.001780000000     0.731670000000     0.652130000000     0.0375392  
H423     H      0.004880000000     0.582000000000     0.686310000000     0.0289886  
H424     H      0.993050000000     0.825420000000     0.927390000000     0.0339434  
H425     H      0.070230000000     0.767430000000     0.788040000000     0.0440112  
H426     H      0.993090000000     0.915810000000     0.831950000000     0.0486686  
H427     H      0.929740000000     0.728120000000     0.737600000000     0.0476815  
H428     H      0.959810000000     0.852430000000     0.809510000000     0.0325469  
H429     H      0.016590000000     0.677530000000     0.597210000000     0.0270423  
H430     H      0.038250000000     0.643070000000     0.714900000000     0.04433    
H431     H      0.045110000000     0.697770000000     0.663230000000     0.0421308  
H432     H      0.936970000000     0.781950000000     0.791630000000     0.0376548  
H433     H      0.958610000000     0.801590000000     0.864840000000     0.0379319  
H434     H      0.955710000000     0.607810000000     0.681830000000     0.0276176  
H435     H      0.063040000000     0.801440000000     0.232210000000     0.0434576  
H436     H      0.008510000000     0.745460000000     0.376360000000     0.0370115  
H437     H      0.023300000000     0.655230000000     0.280940000000     0.0471436  
H438     H      0.949080000000     0.897880000000     0.181970000000     0.0191118  
H439     H      0.051290000000     0.691550000000     0.406480000000     0.0317875  
H440     H      0.995610000000     0.776340000000     0.153100000000     0.0477108  
H441     H      0.987610000000     0.873980000000     0.241630000000     0.0473823  
H442     H      0.004810000000     0.828700000000     0.096080000000     0.0223835  
H443     H      0.018020000000     0.597730000000     0.333430000000     0.0109982  
H444     H      0.076060000000     0.750110000000     0.287250000000     0.0431183  
H445     H      0.000390000000     0.688400000000     0.429200000000     0.0279505  
H446     H      0.931330000000     0.777030000000     0.240690000000     0.0463097  
H447     H      0.966810000000     0.709440000000     0.365310000000     0.0444915  
H448     H      0.996690000000     0.926920000000     0.185180000000     0.0278698  
H449     H      0.039370000000     0.810830000000     0.160450000000     0.0432412  
H450     H      0.034710000000     0.867580000000     0.211790000000     0.0427315  
H451     H      0.944440000000     0.725360000000     0.295510000000     0.0361572  
H452     H      0.976140000000     0.656420000000     0.310920000000     0.0491145  
H453     H      0.954620000000     0.830150000000     0.120530000000     0.0201329  
H454     H      0.087310000000     0.288330000000     0.286580000000     0.0396414  
H455     H      0.018430000000     0.149120000000     0.233380000000     0.0363848  
H456     H      0.046420000000     0.237730000000     0.139510000000     0.0467012  
H457     H      0.977000000000     0.334050000000     0.389860000000     0.0316883  
H458     H      0.059360000000     0.111540000000     0.182950000000     0.0242187  
H459     H      0.024070000000     0.374270000000     0.268970000000     0.0325786  
H460     H      0.014740000000     0.278150000000     0.358670000000     0.0328575  
H461     H      0.035670000000     0.426750000000     0.327300000000     0.0294082  
H462     H      0.039270000000     0.182300000000     0.084740000000     0.0161505  
H463     H      0.095880000000     0.232580000000     0.234830000000     0.0443997  
H464     H      0.006480000000     0.094150000000     0.178970000000     0.024446   
H465     H      0.955340000000     0.290050000000     0.262740000000     0.042933   
H466     H      0.979370000000     0.162700000000     0.195530000000     0.0465677  
H467     H      0.026310000000     0.331500000000     0.415530000000     0.0331037  
H468     H      0.067140000000     0.362900000000     0.302890000000     0.0369169  
H469     H      0.061750000000     0.308390000000     0.354170000000     0.0377494  
H470     H      0.964120000000     0.235020000000     0.210180000000     0.0390931  
H471     H      0.996380000000     0.212750000000     0.140240000000     0.0503521  
H472     H      0.984100000000     0.406170000000     0.322890000000     0.03228    
N1       N      0.452250000000     0.185530000000     0.408320000000    -0.12878    
N2       N      0.508490000000     0.141080000000     0.387110000000    -0.240024   
N3       N      0.495560000000     0.205530000000     0.328020000000    -0.103976   
N4       N      0.504150000000     0.332850000000     0.203790000000    -0.109651   
N5       N      0.494350000000     0.390940000000     0.138610000000    -0.238875   
N6       N      0.444120000000     0.911350000000     0.321390000000    -0.12796    
N7       N      0.497320000000     0.887840000000     0.368590000000    -0.232491   
N8       N      0.489250000000     0.831420000000     0.302180000000    -0.104775   
N9       N      0.511490000000     0.710620000000     0.174930000000    -0.110644   
N10      N      0.501720000000     0.645000000000     0.117660000000    -0.218333   
N11      N      0.443490000000     0.669750000000     0.881790000000    -0.121568   
N12      N      0.498310000000     0.620600000000     0.867170000000    -0.207646   
N13      N      0.490780000000     0.677560000000     0.799980000000    -0.105244   
N14      N      0.516140000000     0.803220000000     0.676310000000    -0.111599   
N15      N      0.508510000000     0.870740000000     0.619760000000    -0.198524   
N16      N      0.439650000000     0.367700000000     0.851870000000    -0.125875   
N17      N      0.505100000000     0.367620000000     0.887840000000    -0.233422   
N18      N      0.498590000000     0.299110000000     0.834740000000    -0.104205   
N19      N      0.502300000000     0.178950000000     0.705670000000    -0.110834   
N20      N      0.514510000000     0.123170000000     0.640370000000    -0.217456   
N21      N      0.612900000000     0.173220000000     0.419310000000    -0.130452   
N22      N      0.627750000000     0.130870000000     0.478920000000    -0.242563   
N23      N      0.688620000000     0.193630000000     0.468500000000    -0.104855   
N24      N      0.810480000000     0.319500000000     0.497510000000    -0.11081    
N25      N      0.873570000000     0.380280000000     0.494710000000    -0.223123   
N26      N      0.885370000000     0.677920000000     0.574670000000    -0.123482   
N27      N      0.877670000000     0.630860000000     0.517060000000    -0.212829   
N28      N      0.814820000000     0.692970000000     0.517130000000    -0.105332   
N29      N      0.693750000000     0.816930000000     0.475600000000    -0.111174   
N30      N      0.631100000000     0.879220000000     0.478990000000    -0.222091   
N31      N      0.170310000000     0.381380000000     0.421710000000    -0.129191   
N32      N      0.124980000000     0.376890000000     0.480580000000    -0.239833   
N33      N      0.186280000000     0.313550000000     0.480100000000    -0.104758   
N34      N      0.311780000000     0.193350000000     0.518910000000    -0.111035   
N35      N      0.375590000000     0.132220000000     0.514210000000    -0.222013   
N36      N      0.178970000000     0.615840000000     0.562750000000    -0.127082   
N37      N      0.131190000000     0.632130000000     0.507570000000    -0.231955   
N38      N      0.192630000000     0.694280000000     0.514530000000    -0.104417   
N39      N      0.317480000000     0.818330000000     0.492450000000    -0.111484   
N40      N      0.379270000000     0.880010000000     0.500470000000    -0.207432   
N41      N      0.637340000000     0.592190000000     0.144060000000    -0.127813   
N42      N      0.633770000000     0.519470000000     0.126160000000    -0.236      
N43      N      0.696460000000     0.529770000000     0.186070000000    -0.103981   
N44      N      0.814850000000     0.526950000000     0.319130000000    -0.110233   
N45      N      0.876710000000     0.515690000000     0.379540000000    -0.227348   
N46      N      0.189770000000     0.532200000000     0.404950000000    -0.126256   
N47      N      0.128630000000     0.497260000000     0.379230000000    -0.243906   
N48      N      0.191620000000     0.504340000000     0.317480000000    -0.10212    
N49      N      0.317040000000     0.502900000000     0.189480000000    -0.10879    
N50      N      0.382300000000     0.497470000000     0.130680000000    -0.23684    
N51      N      0.110870000000     0.542750000000     0.685480000000    -0.122618   
N52      N      0.129780000000     0.492580000000     0.633040000000    -0.225757   
N53      N      0.191500000000     0.495480000000     0.694500000000    -0.104451   
N54      N      0.315980000000     0.469920000000     0.817450000000    -0.110827   
N55      N      0.378130000000     0.479040000000     0.878220000000    -0.223568   
N56      N      0.610350000000     0.447540000000     0.826430000000    -0.124935   
N57      N      0.629030000000     0.500500000000     0.876150000000    -0.214465   
N58      N      0.690980000000     0.495030000000     0.814240000000    -0.105393   
N59      N      0.815940000000     0.521870000000     0.691290000000    -0.111663   
N60      N      0.878170000000     0.513150000000     0.629920000000    -0.200583   
N61      N      0.610370000000     0.680490000000     0.925660000000    -0.122098   
N62      N      0.625820000000     0.634290000000     0.982370000000    -0.205569   
N63      N      0.686950000000     0.697900000000     0.975900000000    -0.107812   
N64      N      0.809690000000     0.823560000000     0.006230000000    -0.12363    
N65      N      0.873990000000     0.883920000000     0.003020000000    -0.201303   
N66      N      0.622320000000     0.336890000000     0.078510000000    -0.127909   
N67      N      0.637020000000     0.385640000000     0.023480000000    -0.234019   
N68      N      0.700860000000     0.326130000000     0.029950000000    -0.102525   
N69      N      0.823410000000     0.202400000000     0.998310000000    -0.0993796  
N70      N      0.881910000000     0.137490000000     0.003850000000    -0.227768   
N71      N      0.390870000000     0.673810000000     0.067610000000    -0.124569   
N72      N      0.372760000000     0.627380000000     0.011970000000    -0.227976   
N73      N      0.308700000000     0.685120000000     0.026300000000    -0.102125   
N74      N      0.182590000000     0.808600000000     0.014900000000    -0.111277   
N75      N      0.125290000000     0.873420000000     0.022040000000    -0.22187    
N76      N      0.404420000000     0.320370000000     0.980340000000    -0.124243   
N77      N      0.383280000000     0.376560000000     0.025280000000    -0.240451   
N78      N      0.323220000000     0.312750000000     0.022160000000    -0.104787   
N79      N      0.196020000000     0.188760000000     0.032890000000    -0.107409   
N80      N      0.134100000000     0.127550000000     0.020120000000    -0.229964   
N81      N      0.624370000000     0.067470000000     0.674270000000    -0.12442    
N82      N      0.636680000000     0.010750000000     0.627090000000    -0.22024    
N83      N      0.700990000000     0.016240000000     0.687030000000    -0.107929   
N84      N      0.822730000000     0.987180000000     0.813220000000    -0.101828   
N85      N      0.883080000000     0.994980000000     0.876970000000    -0.199014   
N86      N      0.399150000000     0.932680000000     0.679770000000    -0.122123   
N87      N      0.383590000000     0.988630000000     0.632620000000    -0.207749   
N88      N      0.322460000000     0.983040000000     0.696080000000    -0.102474   
N89      N      0.199680000000     0.014310000000     0.821030000000    -0.114254   
N90      N      0.135690000000     0.009030000000     0.881520000000    -0.212011   
N91      N      0.179550000000     0.969060000000     0.118580000000    -0.122253   
N92      N      0.126280000000     0.019560000000     0.134160000000    -0.240316   
N93      N      0.185520000000     0.017210000000     0.198410000000    -0.105222   
N94      N      0.308980000000     0.038780000000     0.323970000000    -0.107581   
N95      N      0.372460000000     0.025820000000     0.383580000000    -0.224628   
N96      N      0.835050000000     0.087530000000     0.113220000000    -0.124679   
N97      N      0.873930000000     0.025430000000     0.128100000000    -0.231944   
N98      N      0.811880000000     0.039110000000     0.188990000000    -0.101377   
N99      N      0.684910000000     0.023610000000     0.311940000000    -0.1113     
N100     N      0.625860000000     0.028700000000     0.376090000000    -0.233143   
N101     N      0.959110000000     0.176610000000     0.885410000000    -0.120187   
N102     N      0.014040000000     0.127150000000     0.873180000000    -0.223034   
N103     N      0.010110000000     0.185340000000     0.808550000000    -0.106058   
N104     N      0.032860000000     0.309530000000     0.684890000000    -0.10821    
N105     N      0.019690000000     0.373410000000     0.626540000000    -0.220195   
N106     N      0.054320000000     0.823860000000     0.904830000000    -0.12126    
N107     N      0.004020000000     0.875450000000     0.884270000000    -0.202872   
N108     N      0.010230000000     0.811390000000     0.824160000000    -0.115113   
N109     N      0.990160000000     0.686410000000     0.699100000000    -0.10228    
N110     N      0.999140000000     0.625720000000     0.635890000000    -0.198143   
N111     N      0.074570000000     0.629760000000     0.340120000000    -0.128086   
N112     N      0.016440000000     0.639290000000     0.386170000000    -0.233635   
N113     N      0.020640000000     0.703410000000     0.326630000000    -0.100608   
N114     N      0.987030000000     0.822440000000     0.199940000000    -0.101555   
N115     N      0.992850000000     0.881660000000     0.135660000000    -0.227345   
N116     N      0.092320000000     0.171200000000     0.121410000000    -0.130166   
N117     N      0.028880000000     0.132370000000     0.128370000000    -0.241627   
N118     N      0.037110000000     0.195460000000     0.189840000000    -0.101373   
N119     N      0.013580000000     0.324100000000     0.310960000000    -0.111506   
N120     N      0.017210000000     0.384210000000     0.375290000000    -0.232461   
O1       O      0.020080000000     0.114190000000     0.058320000000    -1.02804    
O2       O      0.999940000000     0.896770000000     0.065310000000    -0.780881   
O3       O      0.943550000000     0.013570000000     0.111650000000    -1.00708    
O4       O      0.056990000000     0.015200000000     0.113800000000    -1.06424    
O5       O      0.110520000000     0.013410000000     0.063890000000    -1.03003    
O6       O      0.892800000000     0.017120000000     0.058480000000    -0.777407   
O7       O      0.997600000000     0.951160000000     0.114980000000    -1.00343    
O8       O      0.012970000000     0.063890000000     0.111120000000    -1.07113    
O9       O      0.046480000000     0.965290000000     0.052800000000    -2.0492     
O10      O      0.964800000000     0.053820000000     0.047260000000    -2.05737    
O11      O      0.955940000000     0.963770000000     0.052370000000    -0.859218   
O12      O      0.013360000000     0.014410000000     0.013790000000    -2.5442     
O13      O      0.000720000000     0.896070000000     0.954010000000    -0.705133   
O14      O      0.011990000000     0.111940000000     0.944070000000    -0.914194   
O15      O      0.894290000000     0.954040000000     0.003190000000    -0.725713   
O16      O      0.110410000000     0.944110000000     0.014660000000    -0.934301   
O17      O      0.113550000000     0.057840000000     0.017680000000    -1.02103    
O18      O      0.897210000000     0.066510000000     0.004660000000    -0.766631   
O19      O      0.952760000000     0.001330000000     0.896490000000    -0.591874   
O20      O      0.065000000000     0.005140000000     0.897540000000    -0.632042   
O21      O      0.898870000000     0.003210000000     0.947390000000    -0.705315   
O22      O      0.115180000000     0.005080000000     0.951230000000    -0.909282   
O23      O      0.944950000000     0.899510000000     0.005670000000    -0.729      
O24      O      0.951240000000     0.116620000000     0.006030000000    -0.944409   
O25      O      0.064170000000     0.111810000000     0.010440000000    -1.03351    
O26      O      0.056170000000     0.894370000000     0.018640000000    -0.770166   
O27      O      0.006170000000     0.946540000000     0.899860000000    -0.595553   
O28      O      0.013000000000     0.057890000000     0.894010000000    -0.646317   
O29      O      0.051680000000     0.047100000000     0.965800000000    -1.96105    
O30      O      0.966320000000     0.967670000000     0.967160000000    -1.58216    
O31      O      0.961880000000     0.049020000000     0.957470000000    -1.2225     
O32      O      0.047620000000     0.956630000000     0.963330000000    -1.24711    
O33      O      0.011170000000     0.399660000000     0.445600000000    -1.04095    
O34      O      0.008490000000     0.618420000000     0.454840000000    -0.802114   
O35      O      0.946380000000     0.514730000000     0.397890000000    -1.02485    
O36      O      0.059180000000     0.501750000000     0.398220000000    -1.08068    
O37      O      0.111130000000     0.496120000000     0.449510000000    -1.0628     
O38      O      0.893800000000     0.504340000000     0.448450000000    -0.793759   
O39      O      0.008760000000     0.568370000000     0.400780000000    -0.99795    
O40      O      0.011780000000     0.453820000000     0.396130000000    -1.06253    
O41      O      0.049260000000     0.546690000000     0.463240000000    -2.10249    
O42      O      0.962950000000     0.462480000000     0.458550000000    -2.07319    
O43      O      0.959130000000     0.553150000000     0.460610000000    -0.862305   
O44      O      0.012370000000     0.496640000000     0.496760000000    -2.5776     
O45      O      0.002320000000     0.610250000000     0.565130000000    -0.721382   
O46      O      0.009170000000     0.394100000000     0.557960000000    -0.931532   
O47      O      0.895800000000     0.561040000000     0.508330000000    -0.745982   
O48      O      0.112790000000     0.561620000000     0.505320000000    -0.953846   
O49      O      0.109610000000     0.447410000000     0.491720000000    -1.04924    
O50      O      0.893040000000     0.450250000000     0.497300000000    -0.776518   
O51      O      0.948040000000     0.503280000000     0.612720000000    -0.586853   
O52      O      0.059850000000     0.496220000000     0.614940000000    -0.63132    
O53      O      0.896260000000     0.508500000000     0.559900000000    -0.71716    
O54      O      0.111840000000     0.495910000000     0.562860000000    -0.953698   
O55      O      0.948520000000     0.613400000000     0.512610000000    -0.721695   
O56      O      0.944090000000     0.397260000000     0.498030000000    -0.941739   
O57      O      0.056480000000     0.396680000000     0.491100000000    -1.04769    
O58      O      0.061120000000     0.614220000000     0.504790000000    -0.772917   
O59      O      0.002800000000     0.555730000000     0.615540000000    -0.587301   
O60      O      0.008370000000     0.443570000000     0.612420000000    -0.639568   
O61      O      0.047180000000     0.458370000000     0.543080000000    -2.00311    
O62      O      0.965920000000     0.541700000000     0.545400000000    -1.61021    
O63      O      0.956970000000     0.460190000000     0.548960000000    -1.25495    
O64      O      0.047400000000     0.548140000000     0.552700000000    -1.23621    
O65      O      0.610310000000     0.018600000000     0.445800000000    -1.03515    
O66      O      0.392410000000     0.014840000000     0.452410000000    -0.78346    
O67      O      0.499820000000     0.956390000000     0.392380000000    -1.01069    
O68      O      0.509330000000     0.069820000000     0.401200000000    -1.06355    
O69      O      0.508910000000     0.118430000000     0.456080000000    -1.03576    
O70      O      0.504090000000     0.899910000000     0.439640000000    -0.79763    
O71      O      0.442840000000     0.016670000000     0.398870000000    -1.00278    
O72      O      0.556540000000     0.022930000000     0.396300000000    -1.06526    
O73      O      0.462840000000     0.054240000000     0.464780000000    -2.0993     
O74      O      0.547850000000     0.969170000000     0.455030000000    -2.0718     
O75      O      0.457780000000     0.964430000000     0.455760000000    -0.865828   
O76      O      0.513040000000     0.015530000000     0.496150000000    -2.55893    
O77      O      0.399550000000     0.998120000000     0.562490000000    -0.709789   
O78      O      0.615700000000     0.007220000000     0.557630000000    -0.926949   
O79      O      0.449540000000     0.897880000000     0.499670000000    -0.749004   
O80      O      0.446330000000     0.114770000000     0.511710000000    -0.938966   
O81      O      0.559320000000     0.113670000000     0.495380000000    -1.07086    
O82      O      0.560980000000     0.896930000000     0.486820000000    -0.772522   
O83      O      0.509460000000     0.942640000000     0.607360000000    -0.572253   
O84      O      0.512400000000     0.054510000000     0.617460000000    -0.624084   
O85      O      0.504630000000     0.894390000000     0.551120000000    -0.718071   
O86      O      0.512070000000     0.110250000000     0.569150000000    -0.95452    
O87      O      0.397010000000     0.950420000000     0.504350000000    -0.740353   
O88      O      0.613070000000     0.948690000000     0.491570000000    -0.933506   
O89      O      0.611210000000     0.061780000000     0.492140000000    -1.04967    
O90      O      0.394750000000     0.062350000000     0.507730000000    -0.76787    
O91      O      0.453510000000     0.996030000000     0.613290000000    -0.567342   
O92      O      0.566010000000     0.004320000000     0.611700000000    -0.615191   
O93      O      0.550700000000     0.047870000000     0.545040000000    -1.97425    
O94      O      0.468380000000     0.965060000000     0.541170000000    -1.58874    
O95      O      0.549870000000     0.956880000000     0.544280000000    -1.25343    
O96      O      0.460820000000     0.045830000000     0.554190000000    -1.22825    
O97      O      0.399220000000     0.446880000000     0.017590000000    -1.03408    
O98      O      0.616980000000     0.454190000000     0.010800000000    -0.777225   
O99      O      0.510690000000     0.392840000000     0.955270000000    -1.02725    
O100     O      0.498920000000     0.403890000000     0.067790000000    -1.09585    
O101     O      0.498560000000     0.459840000000     0.115260000000    -1.09515    
O102     O      0.501810000000     0.439310000000     0.898690000000    -0.799193   
O103     O      0.566610000000     0.400560000000     0.015370000000    -1.02268    
O104     O      0.452870000000     0.396970000000     0.019940000000    -1.05968    
O105     O      0.546800000000     0.466900000000     0.051430000000    -2.12222    
O106     O      0.461390000000     0.455900000000     0.967460000000    -2.09469    
O107     O      0.551110000000     0.456520000000     0.961570000000    -0.865267   
O108     O      0.496500000000     0.497880000000     0.012560000000    -2.59621    
O109     O      0.609840000000     0.564100000000     0.993560000000    -0.698468   
O110     O      0.393860000000     0.558290000000     0.006120000000    -0.949788   
O111     O      0.558840000000     0.499470000000     0.894720000000    -0.754399   
O112     O      0.563630000000     0.517200000000     0.109800000000    -0.988941   
O113     O      0.450780000000     0.507330000000     0.111340000000    -1.10386    
O114     O      0.447820000000     0.488070000000     0.895150000000    -0.788435   
O115     O      0.498700000000     0.608630000000     0.938660000000    -0.597959   
O116     O      0.499480000000     0.621140000000     0.049300000000    -0.640711   
O117     O      0.503530000000     0.551700000000     0.891170000000    -0.723381   
O118     O      0.500930000000     0.573460000000     0.105340000000    -0.964636   
O119     O      0.611830000000     0.505330000000     0.946400000000    -0.727609   
O120     O      0.396220000000     0.491550000000     0.947350000000    -0.933448   
O121     O      0.399560000000     0.492720000000     0.060860000000    -1.03792    
O122     O      0.614780000000     0.507450000000     0.057830000000    -0.758126   
O123     O      0.555900000000     0.615120000000     0.990230000000    -0.583607   
O124     O      0.443030000000     0.613030000000     0.001480000000    -0.634824   
O125     O      0.459330000000     0.547630000000     0.044180000000    -2.02593    
O126     O      0.540630000000     0.542440000000     0.961150000000    -1.60911    
O127     O      0.458820000000     0.545230000000     0.954210000000    -1.27213    
O128     O      0.549170000000     0.556730000000     0.040920000000    -1.23567    
Tb1      Tb     0.001320000000     0.007130000000     0.075540000000     6.31152    
Tb2      Tb     0.002920000000     0.935710000000     0.010220000000     4.28196    
Tb3      Tb     0.006530000000     0.076460000000     0.002570000000     6.15164    
Tb4      Tb     0.934600000000     0.009580000000     0.005570000000     4.26243    
Tb5      Tb     0.075110000000     0.002290000000     0.007070000000     6.07983    
Tb6      Tb     0.008710000000     0.004860000000     0.935710000000     3.22493    
Tb7      Tb     0.003060000000     0.509310000000     0.435450000000     6.33137    
Tb8      Tb     0.005540000000     0.575100000000     0.506440000000     4.3437     
Tb9      Tb     0.001520000000     0.434380000000     0.503180000000     6.17928    
Tb10     Tb     0.933740000000     0.504590000000     0.502820000000     4.35473    
Tb11     Tb     0.074340000000     0.504600000000     0.506210000000     6.40458    
Tb12     Tb     0.005160000000     0.500130000000     0.575270000000     3.18979    
Tb13     Tb     0.501230000000     0.010570000000     0.434210000000     6.31127    
Tb14     Tb     0.434910000000     0.007320000000     0.504610000000     4.31305    
Tb15     Tb     0.575280000000     0.005100000000     0.502210000000     6.16402    
Tb16     Tb     0.505930000000     0.936260000000     0.496610000000     4.37947    
Tb17     Tb     0.503860000000     0.076800000000     0.509970000000     6.35369    
Tb18     Tb     0.509440000000     0.002690000000     0.573950000000     3.0773     
Tb19     Tb     0.508290000000     0.435610000000     0.008500000000     6.42491    
Tb20     Tb     0.574380000000     0.506110000000     0.003370000000     4.20763    
Tb21     Tb     0.434240000000     0.503330000000     0.003150000000     6.1617     
Tb22     Tb     0.502790000000     0.497330000000     0.933650000000     4.44748    
Tb23     Tb     0.506320000000     0.513190000000     0.073120000000     6.60212    
Tb24     Tb     0.499990000000     0.575940000000     0.998580000000     3.23745    


