data_structure

_audit_creation_method RASPA-1.0
_audit_creation_date 2023-5-25
_audit_author_name 'Poobodin Mano'

_cell_length_a    32.1709
_cell_length_b    31.8682
_cell_length_c    32.1081
_cell_angle_alpha 90
_cell_angle_beta  90
_cell_angle_gamma 90
_cell_volume      32918.1

_symmetry_cell_setting          triclinic
_symmetry_space_group_name_Hall 'P 1'
_symmetry_space_group_name_H-M  'P 1'
_symmetry_Int_Tables_number     1

_symmetry_equiv_pos_as_xyz 'x,y,z'

loop_
_atom_site_label
_atom_site_type_symbol
_atom_site_fract_x
_atom_site_fract_y
_atom_site_fract_z
_atom_site_charge
C1       C      0.011090000000     0.105830000000     0.099210000000     0.723076   
C2       C      0.022200000000     0.909260000000     0.100570000000     0.668634   
C3       C      0.909160000000     0.004810000000     0.105040000000     0.662277   
C4       C      0.101510000000     0.024690000000     0.098000000000     0.732797   
C5       C      0.002670000000     0.910360000000     0.911640000000     0.561814   
C6       C      0.999810000000     0.103710000000     0.906140000000     0.642832   
C7       C      0.915830000000     0.904350000000     0.007010000000     0.579624   
C8       C      0.107850000000     0.918170000000     0.015480000000     0.681608   
C9       C      0.091530000000     0.111180000000     0.016530000000     0.709802   
C10      C      0.900170000000     0.096910000000     0.016890000000     0.686371   
C11      C      0.906740000000     0.998660000000     0.913220000000     0.569615   
C12      C      0.097610000000     0.016830000000     0.904680000000     0.638214   
C13      C      0.025030000000     0.420510000000     0.402590000000     0.717202   
C14      C      0.992090000000     0.613130000000     0.410910000000     0.674271   
C15      C      0.904410000000     0.501920000000     0.405830000000     0.673656   
C16      C      0.098010000000     0.511440000000     0.406330000000     0.722156   
C17      C      0.991620000000     0.600880000000     0.601640000000     0.568853   
C18      C      0.018120000000     0.408780000000     0.595520000000     0.638021   
C19      C      0.898450000000     0.596250000000     0.508330000000     0.593325   
C20      C      0.089590000000     0.617190000000     0.498100000000     0.68256    
C21      C      0.105880000000     0.423190000000     0.489700000000     0.721852   
C22      C      0.914450000000     0.404140000000     0.487190000000     0.67981    
C23      C      0.907260000000     0.499090000000     0.597770000000     0.56223    
C24      C      0.098540000000     0.513930000000     0.600170000000     0.642272   
C25      C      0.599180000000     0.005920000000     0.411070000000     0.728455   
C26      C      0.405370000000     0.014050000000     0.409290000000     0.661546   
C27      C      0.495810000000     0.905720000000     0.416600000000     0.6718     
C28      C      0.522300000000     0.099680000000     0.404510000000     0.718221   
C29      C      0.408170000000     0.023390000000     0.600520000000     0.566231   
C30      C      0.599850000000     0.014720000000     0.604080000000     0.636933   
C31      C      0.399670000000     0.923720000000     0.516460000000     0.583203   
C32      C      0.413990000000     0.115470000000     0.494530000000     0.685271   
C33      C      0.605800000000     0.096960000000     0.486530000000     0.714719   
C34      C      0.590470000000     0.904010000000     0.507910000000     0.687017   
C35      C      0.493940000000     0.921170000000     0.607460000000     0.565117   
C36      C      0.520720000000     0.113300000000     0.596910000000     0.650198   
C37      C      0.401140000000     0.419260000000     0.013160000000     0.716574   
C38      C      0.593810000000     0.402630000000     0.996700000000     0.667587   
C39      C      0.489730000000     0.417260000000     0.901850000000     0.673722   
C40      C      0.486220000000     0.406140000000     0.095480000000     0.713411   
C41      C      0.606500000000     0.595170000000     0.003440000000     0.555919   
C42      C      0.415960000000     0.612850000000     0.021520000000     0.632617   
C43      C      0.597780000000     0.510020000000     0.907780000000     0.579391   
C44      C      0.602040000000     0.481440000000     0.098350000000     0.686773   
C45      C      0.409750000000     0.494100000000     0.101810000000     0.702677   
C46      C      0.406250000000     0.518300000000     0.910150000000     0.68139    
C47      C      0.509910000000     0.609300000000     0.916720000000     0.565925   
C48      C      0.512240000000     0.598690000000     0.109100000000     0.642702   
C49      C      0.516520000000     0.200980000000     0.348580000000    -0.0454903  
C50      C      0.493040000000     0.299510000000     0.140930000000    -0.0449281  
C51      C      0.472040000000     0.384030000000     0.168280000000     0.0309938  
C52      C      0.472990000000     0.330620000000     0.110230000000     0.0309856  
C53      C      0.462140000000     0.255550000000     0.236350000000    -0.0547695  
C54      C      0.545950000000     0.238430000000     0.251720000000    -0.0543671  
C55      C      0.492650000000     0.277090000000     0.213590000000     0.0591096  
C56      C      0.492780000000     0.351300000000     0.196400000000    -0.0442875  
C57      C      0.515440000000     0.217080000000     0.274670000000     0.0590915  
C58      C      0.513660000000     0.144320000000     0.298170000000    -0.0528186  
C59      C      0.473260000000     0.225860000000     0.266590000000    -0.0565706  
C60      C      0.533720000000     0.112980000000     0.328920000000     0.0661503  
C61      C      0.536930000000     0.172610000000     0.381370000000     0.0334326  
C62      C      0.534820000000     0.268170000000     0.221520000000    -0.0566748  
C63      C      0.504610000000     0.798160000000     0.372610000000    -0.0421062  
C64      C      0.508780000000     0.699540000000     0.166550000000    -0.0396841  
C65      C      0.521810000000     0.610790000000     0.184260000000     0.031719   
C66      C      0.525620000000     0.671040000000     0.132340000000     0.0177602  
C67      C      0.546700000000     0.732800000000     0.260750000000    -0.0546866  
C68      C      0.465050000000     0.755090000000     0.280920000000    -0.0548236  
C69      C      0.513470000000     0.713620000000     0.240020000000     0.0609431  
C70      C      0.505230000000     0.642170000000     0.216100000000    -0.0446711  
C71      C      0.498280000000     0.774670000000     0.301230000000     0.0615213  
C72      C      0.504210000000     0.848630000000     0.316140000000    -0.0524203  
C73      C      0.539300000000     0.763180000000     0.291150000000    -0.0570496  
C74      C      0.486000000000     0.883340000000     0.343690000000     0.0640138  
C75      C      0.486890000000     0.830040000000     0.403400000000     0.0248603  
C76      C      0.472440000000     0.724780000000     0.250500000000    -0.0566307  
C77      C      0.482180000000     0.818090000000     0.664440000000    -0.040832   
C78      C      0.515350000000     0.717630000000     0.869480000000    -0.0380676  
C79      C      0.501370000000     0.630860000000     0.843860000000     0.0206296  
C80      C      0.504120000000     0.685080000000     0.902820000000     0.0133401  
C81      C      0.461320000000     0.757280000000     0.783980000000    -0.0538101  
C82      C      0.537500000000     0.783880000000     0.751530000000    -0.053795   
C83      C      0.498250000000     0.739470000000     0.799060000000     0.0606758  
C84      C      0.512850000000     0.666510000000     0.814190000000    -0.0406225  
C85      C      0.500560000000     0.801140000000     0.735950000000     0.0609555  
C86      C      0.488810000000     0.873630000000     0.714930000000    -0.0459943  
C87      C      0.462340000000     0.787980000000     0.752790000000    -0.0563636  
C88      C      0.503620000000     0.905750000000     0.682350000000     0.0451316  
C89      C      0.494580000000     0.846880000000     0.628240000000     0.0204352  
C90      C      0.536520000000     0.753390000000     0.782850000000    -0.0562282  
C91      C      0.499500000000     0.316630000000     0.846840000000    -0.0450324  
C92      C      0.518960000000     0.219270000000     0.640830000000    -0.0443395  
C93      C      0.539250000000     0.134660000000     0.668530000000     0.0184871  
C94      C      0.537800000000     0.187800000000     0.610260000000     0.0313589  
C95      C      0.551180000000     0.264100000000     0.734080000000    -0.0550546  
C96      C      0.467250000000     0.278930000000     0.751490000000    -0.0545835  
C97      C      0.520500000000     0.241650000000     0.712660000000     0.0610806  
C98      C      0.520220000000     0.167750000000     0.697010000000    -0.0396393  
C99      C      0.497930000000     0.300870000000     0.773370000000     0.0613043  
C100     C      0.497150000000     0.373280000000     0.796130000000    -0.050441   
C101     C      0.540110000000     0.293610000000     0.764220000000    -0.0569174  
C102     C      0.476050000000     0.403140000000     0.827150000000     0.059076   
C103     C      0.478800000000     0.343700000000     0.880130000000     0.0325938  
C104     C      0.478310000000     0.249530000000     0.721310000000    -0.056784   
C105     C      0.814680000000     0.345920000000     0.480510000000    -0.043069   
C106     C      0.713890000000     0.139630000000     0.468370000000    -0.0467524  
C107     C      0.628950000000     0.169920000000     0.480620000000     0.0367952  
C108     C      0.681210000000     0.108620000000     0.484300000000     0.0350176  
C109     C      0.755630000000     0.229350000000     0.513460000000    -0.0546707  
C110     C      0.783210000000     0.253560000000     0.434450000000    -0.0545621  
C111     C      0.737750000000     0.211170000000     0.478030000000     0.0602397  
C112     C      0.665020000000     0.196730000000     0.464890000000    -0.0474406  
C113     C      0.800470000000     0.272410000000     0.469900000000     0.0603011  
C114     C      0.871190000000     0.295590000000     0.482920000000    -0.0523187  
C115     C      0.786760000000     0.259660000000     0.509590000000    -0.0567031  
C116     C      0.903610000000     0.329030000000     0.470720000000     0.0621095  
C117     C      0.843740000000     0.381540000000     0.467730000000     0.0261352  
C118     C      0.752150000000     0.223080000000     0.438340000000    -0.0567287  
C119     C      0.838600000000     0.696540000000     0.520130000000    -0.0413061  
C120     C      0.633200000000     0.794960000000     0.503230000000    -0.0426405  
C121     C      0.662050000000     0.880280000000     0.519380000000     0.0351807  
C122     C      0.601620000000     0.828190000000     0.516530000000     0.0258209  
C123     C      0.720630000000     0.752390000000     0.552020000000    -0.0545704  
C124     C      0.747550000000     0.727430000000     0.473010000000    -0.0545582  
C125     C      0.703230000000     0.770840000000     0.516470000000     0.0610588  
C126     C      0.690210000000     0.844410000000     0.505720000000    -0.0459321  
C127     C      0.765630000000     0.709740000000     0.508530000000     0.0615757  
C128     C      0.790210000000     0.638610000000     0.519490000000    -0.0486193  
C129     C      0.751610000000     0.721950000000     0.548210000000    -0.0570235  
C130     C      0.822780000000     0.607590000000     0.502970000000     0.0529038  
C131     C      0.874470000000     0.669280000000     0.504780000000     0.0222008  
C132     C      0.716550000000     0.757760000000     0.476790000000    -0.056632   
C133     C      0.167020000000     0.324710000000     0.504070000000    -0.047451   
C134     C      0.370240000000     0.223670000000     0.480700000000    -0.0462092  
C135     C      0.342000000000     0.139250000000     0.502080000000     0.0258687  
C136     C      0.402290000000     0.191560000000     0.495420000000     0.0353458  
C137     C      0.286330000000     0.270410000000     0.529830000000    -0.0546221  
C138     C      0.253810000000     0.288890000000     0.451180000000    -0.0548538  
C139     C      0.300750000000     0.248590000000     0.494830000000     0.0607518  
C140     C      0.313550000000     0.174400000000     0.487180000000    -0.0425538  
C141     C      0.238410000000     0.309670000000     0.486320000000     0.0614807  
C142     C      0.214620000000     0.381810000000     0.491000000000    -0.0525196  
C143     C      0.255490000000     0.300950000000     0.525710000000    -0.0571407  
C144     C      0.180200000000     0.410750000000     0.474400000000     0.0647645  
C145     C      0.129540000000     0.349930000000     0.489310000000     0.0385139  
C146     C      0.284900000000     0.258660000000     0.455220000000    -0.0567017  
C147     C      0.189230000000     0.675720000000     0.507970000000    -0.0453106  
C148     C      0.292040000000     0.881480000000     0.511610000000    -0.0401973  
C149     C      0.375190000000     0.851980000000     0.532760000000     0.0187736  
C150     C      0.324380000000     0.912610000000     0.528170000000     0.0178251  
C151     C      0.245190000000     0.791150000000     0.552310000000    -0.0542149  
C152     C      0.225710000000     0.769200000000     0.470310000000    -0.0541109  
C153     C      0.266770000000     0.810160000000     0.519380000000     0.0601924  
C154     C      0.340760000000     0.823540000000     0.515840000000    -0.0404272  
C155     C      0.204520000000     0.749800000000     0.503220000000     0.0604999  
C156     C      0.132690000000     0.725770000000     0.509060000000    -0.0503609  
C157     C      0.214350000000     0.761180000000     0.544440000000    -0.0565867  
C158     C      0.101660000000     0.693770000000     0.490660000000     0.0573654  
C159     C      0.161870000000     0.641480000000     0.489050000000     0.0332856  
C160     C      0.256580000000     0.799070000000     0.478150000000    -0.0563308  
C161     C      0.803640000000     0.476970000000     0.353540000000    -0.0420783  
C162     C      0.705100000000     0.477480000000     0.146910000000    -0.0425291  
C163     C      0.619700000000     0.457230000000     0.169350000000     0.0329561  
C164     C      0.674870000000     0.461730000000     0.113670000000     0.0248426  
C165     C      0.746840000000     0.437070000000     0.237420000000    -0.0547213  
C166     C      0.761180000000     0.519720000000     0.262950000000    -0.0548244  
C167     C      0.724380000000     0.469900000000     0.219120000000     0.0604901  
C168     C      0.651720000000     0.473160000000     0.200650000000    -0.0449195  
C169     C      0.783290000000     0.486900000000     0.281540000000     0.061448   
C170     C      0.856040000000     0.488500000000     0.300800000000    -0.0524389  
C171     C      0.776270000000     0.445390000000     0.268340000000    -0.0572144  
C172     C      0.885980000000     0.509580000000     0.331620000000     0.0637418  
C173     C      0.830230000000     0.496970000000     0.387570000000     0.0241817  
C174     C      0.732020000000     0.511470000000     0.231900000000    -0.0565429  
C175     C      0.149450000000     0.495510000000     0.302790000000    -0.046821   
C176     C      0.357760000000     0.496030000000     0.204900000000    -0.0455246  
C177     C      0.336420000000     0.477740000000     0.118620000000     0.0311484  
C178     C      0.391150000000     0.478960000000     0.175270000000     0.032364   
C179     C      0.265440000000     0.456540000000     0.244190000000    -0.0544036  
C180     C      0.240940000000     0.538990000000     0.260990000000    -0.0546208  
C181     C      0.284800000000     0.489720000000     0.223070000000     0.0595522  
C182     C      0.305350000000     0.494730000000     0.150550000000    -0.0447175  
C183     C      0.221370000000     0.505810000000     0.281890000000     0.0599686  
C184     C      0.202820000000     0.504970000000     0.354970000000    -0.0530437  
C185     C      0.234140000000     0.464370000000     0.273480000000    -0.0567365  
C186     C      0.171690000000     0.522730000000     0.386960000000     0.0616731  
C187     C      0.115520000000     0.513000000000     0.331470000000     0.034292   
C188     C      0.272420000000     0.531180000000     0.231910000000    -0.0565238  
C189     C      0.200380000000     0.540650000000     0.650330000000    -0.0451714  
C190     C      0.347260000000     0.504340000000     0.813210000000    -0.0430045  
C191     C      0.339400000000     0.550070000000     0.890860000000     0.0320217  
C192     C      0.386360000000     0.516960000000     0.836590000000     0.0273762  
C193     C      0.293450000000     0.538020000000     0.744580000000    -0.0533589  
C194     C      0.210120000000     0.532500000000     0.767060000000    -0.053129   
C195     C      0.283220000000     0.535030000000     0.787050000000     0.059894   
C196     C      0.302740000000     0.540880000000     0.861720000000    -0.0452293  
C197     C      0.220550000000     0.532640000000     0.724530000000     0.0599756  
C198     C      0.159600000000     0.496930000000     0.696240000000    -0.0492041  
C199     C      0.263060000000     0.535030000000     0.713800000000    -0.0545133  
C200     C      0.118910000000     0.506920000000     0.673630000000     0.0538787  
C201     C      0.162990000000     0.548640000000     0.621900000000     0.0326437  
C202     C      0.240740000000     0.531940000000     0.797780000000    -0.0542711  
C203     C      0.802740000000     0.507860000000     0.648720000000    -0.0398     
C204     C      0.701150000000     0.502430000000     0.854840000000    -0.0400752  
C205     C      0.615400000000     0.523320000000     0.833860000000     0.0177739  
C206     C      0.671880000000     0.518450000000     0.889020000000     0.0175944  
C207     C      0.741310000000     0.546700000000     0.764330000000    -0.0541302  
C208     C      0.761160000000     0.465220000000     0.738970000000    -0.0540071  
C209     C      0.720410000000     0.512650000000     0.782460000000     0.0596822  
C210     C      0.647520000000     0.507220000000     0.802260000000    -0.0402284  
C211     C      0.782230000000     0.499250000000     0.721010000000     0.0598497  
C212     C      0.855360000000     0.505970000000     0.702400000000    -0.0464642  
C213     C      0.771870000000     0.540220000000     0.733860000000    -0.0563969  
C214     C      0.888830000000     0.489320000000     0.672150000000     0.0475527  
C215     C      0.832860000000     0.491190000000     0.615550000000     0.0179755  
C216     C      0.730520000000     0.471700000000     0.769340000000    -0.0562528  
C217     C      0.714280000000     0.638960000000     0.005560000000    -0.0716189  
C218     C      0.814940000000     0.846070000000     0.998640000000    -0.00901318 
C219     C      0.903060000000     0.828190000000     0.011030000000    -0.0070547  
C220     C      0.843300000000     0.881080000000     0.014500000000    -0.00735395 
C221     C      0.782170000000     0.752660000000     0.041220000000    -0.0456252  
C222     C      0.756880000000     0.729540000000     0.961140000000    -0.0628609  
C223     C      0.800320000000     0.772160000000     0.006590000000     0.0452864  
C224     C      0.871230000000     0.796030000000     0.995520000000    -0.00938438 
C225     C      0.738290000000     0.710500000000     0.995790000000     0.0758372  
C226     C      0.665010000000     0.696410000000     0.005470000000    -0.0768048  
C227     C      0.751420000000     0.722090000000     0.036020000000    -0.0731781  
C228     C      0.629220000000     0.668140000000     0.990640000000     0.0716478  
C229     C      0.681300000000     0.607540000000     0.990880000000     0.046111   
C230     C      0.787650000000     0.760110000000     0.966340000000    -0.0399117  
C231     C      0.793430000000     0.139130000000     0.012290000000    -0.0553544  
C232     C      0.692950000000     0.344420000000     0.003440000000    -0.0693666  
C233     C      0.605830000000     0.326970000000     0.985440000000     0.0464643  
C234     C      0.665770000000     0.378940000000     0.985120000000     0.0384233  
C235     C      0.728190000000     0.250070000000     0.966830000000    -0.0643037  
C236     C      0.747010000000     0.230220000000     0.049570000000    -0.0450566  
C237     C      0.707190000000     0.270470000000     0.999180000000     0.0766386  
C238     C      0.635880000000     0.294560000000     0.003520000000    -0.0724265  
C239     C      0.768610000000     0.210460000000     0.017220000000     0.0445504  
C240     C      0.842380000000     0.197210000000     0.013570000000    -0.0646895  
C241     C      0.758680000000     0.220240000000     0.975630000000    -0.0388988  
C242     C      0.877270000000     0.169540000000     0.031190000000     0.0671276  
C243     C      0.825540000000     0.108870000000     0.030300000000     0.029801   
C244     C      0.716470000000     0.260030000000     0.040760000000    -0.0738583  
C245     C      0.206600000000     0.860540000000     0.010160000000    -0.0664627  
C246     C      0.314630000000     0.669850000000     0.023910000000    -0.0405148  
C247     C      0.402110000000     0.686100000000     0.041610000000     0.0173443  
C248     C      0.347890000000     0.642370000000     0.003590000000     0.0173723  
C249     C      0.310630000000     0.786210000000     0.041010000000    -0.0547091  
C250     C      0.228280000000     0.764570000000     0.057910000000    -0.0544852  
C251     C      0.300020000000     0.743560000000     0.043800000000     0.0587969  
C252     C      0.366000000000     0.709860000000     0.061990000000    -0.0398556  
C253     C      0.238660000000     0.807440000000     0.053040000000     0.0566096  
C254     C      0.165290000000     0.828880000000     0.064970000000    -0.0488938  
C255     C      0.280850000000     0.817540000000     0.047140000000    -0.0537985  
C256     C      0.134410000000     0.866030000000     0.064450000000     0.0421071  
C257     C      0.181700000000     0.901080000000     0.011830000000     0.0302645  
C258     C      0.258630000000     0.733320000000     0.054450000000    -0.0556574  
C259     C      0.135970000000     0.218880000000     0.008890000000    -0.0591557  
C260     C      0.342240000000     0.318160000000     0.026140000000    -0.0438745  
C261     C      0.325790000000     0.406910000000     0.010680000000     0.0223719  
C262     C      0.377920000000     0.345910000000     0.010960000000     0.0232568  
C263     C      0.252650000000     0.283720000000     0.979860000000    -0.0454823  
C264     C      0.222730000000     0.263650000000     0.059110000000    -0.0530392  
C265     C      0.269400000000     0.303870000000     0.014860000000     0.050827   
C266     C      0.293200000000     0.375390000000     0.025650000000    -0.0434696  
C267     C      0.206140000000     0.243380000000     0.024150000000     0.0501746  
C268     C      0.191470000000     0.168840000000     0.020860000000    -0.0632259  
C269     C      0.221380000000     0.253560000000     0.984340000000    -0.047191   
C270     C      0.161430000000     0.135740000000     0.038220000000     0.0641262  
C271     C      0.102900000000     0.187650000000     0.023990000000     0.0394537  
C272     C      0.254180000000     0.293560000000     0.054680000000    -0.0558468  
C273     C      0.800680000000     0.987880000000     0.864090000000    -0.0200155  
C274     C      0.704760000000     0.015990000000     0.656630000000    -0.0530858  
C275     C      0.616570000000     0.017010000000     0.678430000000     0.007078   
C276     C      0.673120000000     0.004490000000     0.622890000000     0.0232766  
C277     C      0.733900000000     0.967700000000     0.747590000000    -0.0449307  
C278     C      0.766900000000     0.044000000000     0.774930000000    -0.0538888  
C279     C      0.720210000000     0.005290000000     0.729550000000     0.0505751  
C280     C      0.651760000000     0.028250000000     0.708160000000    -0.0370552  
C281     C      0.780220000000     0.006490000000     0.793300000000     0.0521259  
C282     C      0.852400000000     0.993410000000     0.809950000000    -0.0159303  
C283     C      0.763940000000     0.968120000000     0.779050000000    -0.0490138  
C284     C      0.886240000000     0.008550000000     0.839960000000     0.018926   
C285     C      0.831760000000     0.000160000000     0.898190000000    -0.00898194 
C286     C      0.737320000000     0.043550000000     0.743150000000    -0.0553674  
C287     C      0.200390000000     0.030300000000     0.852000000000    -0.0426832  
C288     C      0.303500000000     0.019280000000     0.649530000000    -0.0516849  
C289     C      0.389200000000     0.036660000000     0.673730000000     0.0167504  
C290     C      0.334190000000     0.034410000000     0.616600000000     0.0224629  
C291     C      0.261630000000     0.064780000000     0.737150000000    -0.0533033  
C292     C      0.240580000000     0.983970000000     0.763780000000    -0.0454824  
C293     C      0.282720000000     0.030060000000     0.720770000000     0.0511051  
C294     C      0.355590000000     0.021750000000     0.703950000000    -0.0498537  
C295     C      0.219730000000     0.018690000000     0.780390000000     0.0520773  
C296     C      0.147010000000     0.025550000000     0.799210000000    -0.0457306  
C297     C      0.230300000000     0.059280000000     0.766740000000    -0.0559759  
C298     C      0.114510000000     0.008760000000     0.830120000000     0.0405102  
C299     C      0.171520000000     0.014000000000     0.886010000000     0.0221769  
C300     C      0.271810000000     0.989450000000     0.734130000000    -0.0473908  
C301     C      0.203900000000     0.008170000000     0.150040000000    -0.0584506  
C302     C      0.302480000000     0.027260000000     0.356220000000    -0.0389207  
C303     C      0.387350000000     0.002290000000     0.335870000000     0.0207685  
C304     C      0.331070000000     0.012390000000     0.391280000000     0.0116663  
C305     C      0.261820000000     0.978160000000     0.269060000000    -0.0457838  
C306     C      0.246130000000     0.058120000000     0.236840000000    -0.0532788  
C307     C      0.283480000000     0.012830000000     0.284830000000     0.0516417  
C308     C      0.355880000000     0.018170000000     0.304050000000    -0.0419818  
C309     C      0.224570000000     0.023470000000     0.221010000000     0.0511918  
C310     C      0.151700000000     0.020800000000     0.202550000000    -0.0644927  
C311     C      0.232460000000     0.983310000000     0.237420000000    -0.0476251  
C312     C      0.120620000000     0.039110000000     0.171190000000     0.069751   
C313     C      0.176210000000     0.024800000000     0.115040000000     0.0396752  
C314     C      0.275370000000     0.053010000000     0.268530000000    -0.0559635  
C315     C      0.703840000000     0.012210000000     0.361300000000    -0.0676773  
C316     C      0.806150000000     0.999020000000     0.158300000000    -0.0123062  
C317     C      0.893100000000     0.014080000000     0.179480000000     0.00631515 
C318     C      0.835840000000     0.013980000000     0.124370000000    -0.000864958
C319     C      0.768010000000     0.045080000000     0.247020000000    -0.0459473  
C320     C      0.744920000000     0.964800000000     0.273500000000    -0.0632172  
C321     C      0.788030000000     0.009880000000     0.230290000000     0.0459835  
C322     C      0.860160000000     0.999550000000     0.210720000000    -0.0151752  
C323     C      0.724870000000     0.999990000000     0.290170000000     0.0763503  
C324     C      0.651890000000     0.008660000000     0.306910000000    -0.0836161  
C325     C      0.736650000000     0.040320000000     0.276730000000    -0.0728226  
C326     C      0.617850000000     0.993990000000     0.337320000000     0.0904601  
C327     C      0.673320000000     0.997230000000     0.394480000000     0.065509   
C328     C      0.776230000000     0.969540000000     0.243740000000    -0.0405501  
C329     C      0.012350000000     0.303440000000     0.643760000000    -0.0493355  
C330     C      0.010080000000     0.207660000000     0.853330000000    -0.0570745  
C331     C      0.994230000000     0.120290000000     0.831490000000     0.0266961  
C332     C      0.992180000000     0.178140000000     0.886430000000     0.0408673  
C333     C      0.972530000000     0.244300000000     0.759390000000    -0.0494429  
C334     C      0.054300000000     0.263510000000     0.736870000000    -0.054715   
C335     C      0.005590000000     0.224670000000     0.779990000000     0.0536187  
C336     C      0.012760000000     0.152430000000     0.801690000000    -0.0474663  
C337     C      0.021230000000     0.282930000000     0.716070000000     0.0573624  
C338     C      0.019020000000     0.356330000000     0.697870000000    -0.0534559  
C339     C      0.980140000000     0.273400000000     0.727790000000    -0.053486   
C340     C      0.037150000000     0.388540000000     0.667430000000     0.0558567  
C341     C      0.029160000000     0.333440000000     0.610470000000     0.0319846  
C342     C      0.046690000000     0.234650000000     0.768690000000    -0.0549503  
C343     C      0.005710000000     0.804320000000     0.861610000000    -0.0534485  
C344     C      0.976910000000     0.703920000000     0.657260000000    -0.0417208  
C345     C      0.997910000000     0.616810000000     0.676210000000     0.0188167  
C346     C      0.990200000000     0.675220000000     0.621510000000     0.0252508  
C347     C      0.029810000000     0.741770000000     0.743180000000    -0.0578276  
C348     C      0.952470000000     0.763360000000     0.776620000000    -0.0545893  
C349     C      0.993890000000     0.721840000000     0.728450000000     0.0649481  
C350     C      0.983930000000     0.649120000000     0.708490000000    -0.0391682  
C351     C      0.988390000000     0.783430000000     0.791200000000     0.0650441  
C352     C      0.997530000000     0.856990000000     0.807950000000    -0.0420704  
C353     C      0.027240000000     0.772330000000     0.774280000000    -0.0600232  
C354     C      0.984490000000     0.890880000000     0.839410000000     0.0468439  
C355     C      0.993580000000     0.835130000000     0.896110000000     0.0311396  
C356     C      0.955050000000     0.732790000000     0.745500000000    -0.0568973  
C357     C      0.009220000000     0.812460000000     0.158000000000    -0.0483477  
C358     C      0.004490000000     0.717660000000     0.364430000000    -0.0532841  
C359     C      0.975580000000     0.634890000000     0.338920000000     0.0301007  
C360     C      0.983730000000     0.688730000000     0.396150000000     0.030071   
C361     C      0.972000000000     0.768550000000     0.277290000000    -0.0502209  
C362     C      0.053500000000     0.769380000000     0.246970000000    -0.0549143  
C363     C      0.001080000000     0.739910000000     0.292870000000     0.0539501  
C364     C      0.996210000000     0.665930000000     0.309250000000    -0.039393   
C365     C      0.023900000000     0.796590000000     0.229970000000     0.057303   
C366     C      0.037240000000     0.866820000000     0.203990000000    -0.0474261  
C367     C      0.983310000000     0.797070000000     0.246340000000    -0.0532036  
C368     C      0.056600000000     0.890220000000     0.166990000000     0.0430089  
C369     C      0.026670000000     0.834490000000     0.119690000000     0.0272649  
C370     C      0.042430000000     0.741500000000     0.278550000000    -0.0553053  
C371     C      0.016330000000     0.371370000000     0.298690000000    -0.0510692  
C372     C      0.025110000000     0.160840000000     0.201900000000    -0.0454282  
C373     C      0.006250000000     0.181090000000     0.115340000000     0.0306991  
C374     C      0.008270000000     0.126260000000     0.173260000000     0.0297225  
C375     C      0.057600000000     0.249120000000     0.226760000000    -0.0561908  
C376     C      0.990440000000     0.284100000000     0.269980000000    -0.0526487  
C377     C      0.017060000000     0.234430000000     0.218940000000     0.0563557  
C378     C      0.023510000000     0.212480000000     0.146860000000    -0.0455659  
C379     C      0.030860000000     0.299520000000     0.276950000000     0.0564562  
C380     C      0.033640000000     0.318220000000     0.350100000000    -0.0517631  
C381     C      0.064260000000     0.281520000000     0.255370000000    -0.0538111  
C382     C      0.051990000000     0.350980000000     0.380070000000     0.0631599  
C383     C      0.032550000000     0.406680000000     0.326900000000     0.0367375  
C384     C      0.983710000000     0.252030000000     0.240970000000    -0.0506277  
H1       H      0.977600000000     0.975690000000     0.038080000000    -1.25201    
H2       H      0.027950000000     0.034710000000     0.029320000000    -1.05121    
H3       H      0.959860000000     0.075240000000     0.968590000000    -0.5235     
H4       H      0.075930000000     0.973650000000     0.967010000000    -0.515362   
H5       H      0.969760000000     0.538040000000     0.472690000000    -1.25934    
H6       H      0.029060000000     0.488500000000     0.476390000000    -1.05509    
H7       H      0.971000000000     0.433560000000     0.536340000000    -0.498658   
H8       H      0.068410000000     0.553220000000     0.540540000000    -0.526798   
H9       H      0.470980000000     0.981470000000     0.476940000000    -1.24024    
H10      H      0.529830000000     0.031810000000     0.479820000000    -1.06711    
H11      H      0.569860000000     0.969490000000     0.546410000000    -0.518782   
H12      H      0.472040000000     0.087190000000     0.539070000000    -0.5388     
H13      H      0.530420000000     0.475610000000     0.973060000000    -1.2494     
H14      H      0.477880000000     0.482910000000     0.029400000000    -1.05471    
H15      H      0.436680000000     0.553690000000     0.972740000000    -0.491109   
H16      H      0.547030000000     0.535810000000     0.077330000000    -0.534733   
H17      H      0.559090000000     0.284470000000     0.204700000000     0.0390699  
H18      H      0.527150000000     0.233760000000     0.354030000000     0.0350768  
H19      H      0.520960000000     0.135100000000     0.265480000000     0.0385204  
H20      H      0.438040000000     0.383290000000     0.174330000000     0.0211606  
H21      H      0.571000000000     0.178430000000     0.381110000000     0.0226628  
H22      H      0.483240000000     0.267200000000     0.132190000000     0.0339791  
H23      H      0.483190000000     0.357520000000     0.229130000000     0.0348557  
H24      H      0.486000000000     0.324760000000     0.078690000000     0.0266606  
H25      H      0.518150000000     0.082210000000     0.324210000000     0.0226871  
H26      H      0.578530000000     0.232210000000     0.257560000000     0.0431629  
H27      H      0.525180000000     0.182130000000     0.412510000000     0.0306119  
H28      H      0.429570000000     0.262130000000     0.230880000000     0.0424284  
H29      H      0.482150000000     0.200110000000     0.352720000000     0.0372256  
H30      H      0.483600000000     0.415600000000     0.177300000000     0.0326916  
H31      H      0.527470000000     0.301420000000     0.137930000000     0.0366399  
H32      H      0.527180000000     0.354830000000     0.194410000000     0.0376008  
H33      H      0.448990000000     0.210050000000     0.283870000000     0.0387969  
H34      H      0.479260000000     0.142430000000     0.301640000000     0.0382604  
H35      H      0.439060000000     0.324160000000     0.108850000000     0.0204229  
H36      H      0.446240000000     0.710560000000     0.234750000000     0.0393615  
H37      H      0.494430000000     0.766240000000     0.382360000000     0.0351917  
H38      H      0.495390000000     0.853970000000     0.282950000000     0.0399107  
H39      H      0.555450000000     0.605550000000     0.190290000000     0.0249189  
H40      H      0.453170000000     0.823670000000     0.407640000000     0.0263443  
H41      H      0.520880000000     0.731820000000     0.161150000000     0.0350255  
H42      H      0.514730000000     0.631570000000     0.247740000000     0.0350881  
H43      H      0.511970000000     0.681340000000     0.102210000000     0.0349489  
H44      H      0.501820000000     0.913060000000     0.334890000000     0.0240166  
H45      H      0.433380000000     0.763900000000     0.288290000000     0.044283   
H46      H      0.502260000000     0.824960000000     0.434020000000     0.0348801  
H47      H      0.578390000000     0.724580000000     0.252820000000     0.0433386  
H48      H      0.539200000000     0.799220000000     0.373830000000     0.037579   
H49      H      0.505560000000     0.580390000000     0.189170000000     0.0269026  
H50      H      0.474220000000     0.700570000000     0.164470000000     0.0369142  
H51      H      0.470630000000     0.642420000000     0.214720000000     0.0373604  
H52      H      0.565460000000     0.778150000000     0.306260000000     0.0399618  
H53      H      0.538790000000     0.850260000000     0.317700000000     0.0408478  
H54      H      0.559870000000     0.675320000000     0.130260000000     0.0297386  
H55      H      0.565500000000     0.740280000000     0.793950000000     0.0406047  
H56      H      0.491480000000     0.785420000000     0.656420000000     0.035503   
H57      H      0.500860000000     0.882130000000     0.746410000000     0.0396528  
H58      H      0.467810000000     0.623400000000     0.839870000000     0.0316672  
H59      H      0.526540000000     0.838430000000     0.618000000000     0.0319724  
H60      H      0.504010000000     0.748860000000     0.880060000000     0.0371418  
H61      H      0.499740000000     0.659140000000     0.782940000000     0.0357115  
H62      H      0.523570000000     0.690950000000     0.930850000000     0.0380592  
H63      H      0.488070000000     0.936140000000     0.689260000000     0.0310405  
H64      H      0.567150000000     0.793870000000     0.739010000000     0.0451001  
H65      H      0.473450000000     0.840310000000     0.601600000000     0.0347644  
H66      H      0.431650000000     0.746950000000     0.796160000000     0.0449454  
H67      H      0.447770000000     0.818620000000     0.668210000000     0.0369431  
H68      H      0.519190000000     0.602470000000     0.834460000000     0.0350607  
H69      H      0.549800000000     0.719420000000     0.866370000000     0.0388343  
H70      H      0.547310000000     0.668130000000     0.811150000000     0.0380606  
H71      H      0.433410000000     0.801070000000     0.741500000000     0.0404946  
H72      H      0.454250000000     0.874680000000     0.716990000000     0.0394182  
H73      H      0.471190000000     0.689920000000     0.912220000000     0.0356758  
H74      H      0.454010000000     0.232540000000     0.705220000000     0.0403435  
H75      H      0.490980000000     0.283270000000     0.852650000000     0.0357008  
H76      H      0.488310000000     0.381780000000     0.763620000000     0.0390724  
H77      H      0.573530000000     0.134670000000     0.673060000000     0.0272827  
H78      H      0.445160000000     0.335800000000     0.881340000000     0.0258168  
H79      H      0.529050000000     0.251370000000     0.631610000000     0.0352465  
H80      H      0.531120000000     0.161760000000     0.729390000000     0.0348931  
H81      H      0.524620000000     0.193940000000     0.578840000000     0.028479   
H82      H      0.488950000000     0.435000000000     0.821620000000     0.0277463  
H83      H      0.434710000000     0.284340000000     0.758270000000     0.0444554  
H84      H      0.492500000000     0.335160000000     0.910760000000     0.0268796  
H85      H      0.583730000000     0.258270000000     0.727730000000     0.0430496  
H86      H      0.533890000000     0.319630000000     0.849640000000     0.0365086  
H87      H      0.527460000000     0.103370000000     0.678200000000     0.0356718  
H88      H      0.484450000000     0.217720000000     0.638580000000     0.0392642  
H89      H      0.485750000000     0.164490000000     0.696400000000     0.0391134  
H90      H      0.564340000000     0.310310000000     0.780720000000     0.0391204  
H91      H      0.531470000000     0.377260000000     0.798650000000     0.0379339  
H92      H      0.571920000000     0.193160000000     0.608640000000     0.023946   
H93      H      0.738870000000     0.209420000000     0.410490000000     0.0392821  
H94      H      0.783330000000     0.352500000000     0.467350000000     0.0355165  
H95      H      0.881690000000     0.263920000000     0.472560000000     0.0390907  
H96      H      0.621420000000     0.179550000000     0.513070000000     0.0236773  
H97      H      0.841120000000     0.386350000000     0.433520000000     0.0279778  
H98      H      0.744870000000     0.129530000000     0.480150000000     0.0349556  
H99      H      0.659030000000     0.229920000000     0.473920000000     0.0357568  
H100     H      0.684930000000     0.078520000000     0.467210000000     0.0277062  
H101     H      0.931850000000     0.323080000000     0.489810000000     0.0226299  
H102     H      0.793430000000     0.263060000000     0.403730000000     0.0435708  
H103     H      0.832700000000     0.410780000000     0.483030000000     0.0339424  
H104     H      0.744850000000     0.220460000000     0.544170000000     0.0432246  
H105     H      0.811990000000     0.345410000000     0.515100000000     0.0382565  
H106     H      0.601090000000     0.176920000000     0.461290000000     0.0296399  
H107     H      0.714840000000     0.138660000000     0.433690000000     0.0359627  
H108     H      0.666230000000     0.195230000000     0.430230000000     0.0368361  
H109     H      0.799520000000     0.273690000000     0.537490000000     0.0396892  
H110     H      0.869070000000     0.294540000000     0.517530000000     0.0395916  
H111     H      0.687520000000     0.101930000000     0.517710000000     0.0235378  
H112     H      0.703700000000     0.771650000000     0.448860000000     0.0398053  
H113     H      0.844150000000     0.729320000000     0.509460000000     0.035787   
H114     H      0.758340000000     0.628420000000     0.510250000000     0.038545   
H115     H      0.666090000000     0.885390000000     0.553410000000     0.0260122  
H116     H      0.880530000000     0.676690000000     0.471470000000     0.0284106  
H117     H      0.622020000000     0.763780000000     0.514160000000     0.0354853  
H118     H      0.721920000000     0.850330000000     0.518330000000     0.0365921  
H119     H      0.572550000000     0.823230000000     0.498410000000     0.0332271  
H120     H      0.818630000000     0.577610000000     0.520230000000     0.0286823  
H121     H      0.758160000000     0.718210000000     0.442320000000     0.0444732  
H122     H      0.902800000000     0.678200000000     0.522570000000     0.0351649  
H123     H      0.710710000000     0.762310000000     0.582710000000     0.0439204  
H124     H      0.838160000000     0.696570000000     0.554830000000     0.0371895  
H125     H      0.672550000000     0.909310000000     0.503270000000     0.028321   
H126     H      0.634970000000     0.794170000000     0.468600000000     0.0375375  
H127     H      0.692250000000     0.844090000000     0.471070000000     0.0388181  
H128     H      0.765170000000     0.708610000000     0.576070000000     0.0397272  
H129     H      0.791080000000     0.638500000000     0.554190000000     0.0386479  
H130     H      0.593970000000     0.823450000000     0.549980000000     0.0278203  
H131     H      0.295780000000     0.242460000000     0.427680000000     0.0392609  
H132     H      0.160660000000     0.290850000000     0.498340000000     0.0362026  
H133     H      0.245220000000     0.390560000000     0.477150000000     0.038874   
H134     H      0.337790000000     0.135150000000     0.536230000000     0.0272626  
H135     H      0.120100000000     0.338070000000     0.458370000000     0.0273934  
H136     H      0.381500000000     0.255550000000     0.489320000000     0.0353533  
H137     H      0.282080000000     0.169180000000     0.500670000000     0.035302   
H138     H      0.430780000000     0.195080000000     0.476080000000     0.0247974  
H139     H      0.186070000000     0.442680000000     0.487020000000     0.0253984  
H140     H      0.241010000000     0.295570000000     0.420690000000     0.0444592  
H141     H      0.103320000000     0.343510000000     0.511010000000     0.0280903  
H142     H      0.298460000000     0.263050000000     0.560430000000     0.043567   
H143     H      0.171080000000     0.329210000000     0.538240000000     0.0377769  
H144     H      0.331880000000     0.109570000000     0.486900000000     0.0328261  
H145     H      0.367570000000     0.222240000000     0.446130000000     0.0373339  
H146     H      0.310830000000     0.172880000000     0.452620000000     0.037059   
H147     H      0.244250000000     0.316930000000     0.553240000000     0.0399113  
H148     H      0.217560000000     0.386260000000     0.525300000000     0.0389168  
H149     H      0.411040000000     0.198880000000     0.528140000000     0.0253441  
H150     H      0.272880000000     0.813010000000     0.452120000000     0.0401201  
H151     H      0.221850000000     0.670160000000     0.497760000000     0.0358539  
H152     H      0.123190000000     0.758370000000     0.500750000000     0.0394062  
H153     H      0.376600000000     0.848350000000     0.567180000000     0.0298443  
H154     H      0.168310000000     0.639970000000     0.455100000000     0.0271575  
H155     H      0.260630000000     0.892610000000     0.521040000000     0.036049   
H156     H      0.345730000000     0.791340000000     0.528330000000     0.035073   
H157     H      0.319680000000     0.943120000000     0.512050000000     0.0367392  
H158     H      0.071640000000     0.697900000000     0.507330000000     0.0260881  
H159     H      0.218710000000     0.760550000000     0.438450000000     0.044364   
H160     H      0.171340000000     0.610940000000     0.502820000000     0.0287607  
H161     H      0.252780000000     0.799170000000     0.584190000000     0.0436436  
H162     H      0.188250000000     0.673430000000     0.542580000000     0.0381584  
H163     H      0.405330000000     0.840900000000     0.519880000000     0.0350042  
H164     H      0.293430000000     0.881140000000     0.476950000000     0.0376649  
H165     H      0.343160000000     0.822080000000     0.481260000000     0.0375762  
H166     H      0.198730000000     0.746410000000     0.570440000000     0.040143   
H167     H      0.131570000000     0.723580000000     0.543660000000     0.0393633  
H168     H      0.318570000000     0.917800000000     0.561920000000     0.0309958  
H169     H      0.715320000000     0.537440000000     0.218070000000     0.0397726  
H170     H      0.770320000000     0.481610000000     0.361720000000     0.0356569  
H171     H      0.861880000000     0.500200000000     0.268570000000     0.0387399  
H172     H      0.618550000000     0.422400000000     0.171220000000     0.0220592  
H173     H      0.818120000000     0.528990000000     0.393690000000     0.028927   
H174     H      0.737020000000     0.467240000000     0.138210000000     0.034699   
H175     H      0.644150000000     0.459780000000     0.231770000000     0.0351869  
H176     H      0.682630000000     0.477270000000     0.083660000000     0.0316349  
H177     H      0.917710000000     0.497730000000     0.324470000000     0.0215888  
H178     H      0.766600000000     0.551800000000     0.272670000000     0.0444839  
H179     H      0.826240000000     0.478370000000     0.416610000000     0.0348447  
H180     H      0.741390000000     0.404990000000     0.227720000000     0.0428169  
H181     H      0.809860000000     0.442600000000     0.352440000000     0.0371931  
H182     H      0.588650000000     0.469350000000     0.178570000000     0.027957   
H183     H      0.704460000000     0.512420000000     0.147360000000     0.0382296  
H184     H      0.649290000000     0.507960000000     0.202660000000     0.0387425  
H185     H      0.793370000000     0.419590000000     0.282020000000     0.0398302  
H186     H      0.862220000000     0.454090000000     0.300380000000     0.039287   
H187     H      0.679470000000     0.427380000000     0.109570000000     0.0255467  
H188     H      0.286980000000     0.557430000000     0.216280000000     0.039134   
H189     H      0.140490000000     0.502190000000     0.269970000000     0.0353588  
H190     H      0.234570000000     0.517600000000     0.361170000000     0.039366   
H191     H      0.332160000000     0.443200000000     0.116060000000     0.0199059  
H192     H      0.108770000000     0.545920000000     0.322190000000     0.0233879  
H193     H      0.365330000000     0.485460000000     0.237060000000     0.0352115  
H194     H      0.273810000000     0.483160000000     0.142100000000     0.0343672  
H195     H      0.421430000000     0.493640000000     0.183400000000     0.0290122  
H196     H      0.179900000000     0.509300000000     0.417820000000     0.0279119  
H197     H      0.231790000000     0.571050000000     0.267400000000     0.0436235  
H198     H      0.086670000000     0.494490000000     0.326350000000     0.0288102  
H199     H      0.274690000000     0.424490000000     0.237890000000     0.04286    
H200     H      0.151070000000     0.460820000000     0.306740000000     0.0381619  
H201     H      0.328720000000     0.491560000000     0.087800000000     0.0326578  
H202     H      0.358540000000     0.530970000000     0.204410000000     0.0375632  
H203     H      0.305080000000     0.529630000000     0.148860000000     0.0373043  
H204     H      0.219990000000     0.438150000000     0.289530000000     0.0404199  
H205     H      0.204920000000     0.470390000000     0.358830000000     0.0415804  
H206     H      0.394050000000     0.444630000000     0.180440000000     0.0217865  
H207     H      0.230340000000     0.530200000000     0.829730000000     0.0392251  
H208     H      0.220610000000     0.568890000000     0.648200000000     0.0349532  
H209     H      0.152370000000     0.487750000000     0.728860000000     0.0376985  
H210     H      0.347630000000     0.583850000000     0.888000000000     0.0253763  
H211     H      0.152320000000     0.581500000000     0.626640000000     0.0271252  
H212     H      0.356280000000     0.499140000000     0.780250000000     0.034552   
H213     H      0.280100000000     0.566990000000     0.865570000000     0.0358356  
H214     H      0.409990000000     0.491860000000     0.833100000000     0.0357342  
H215     H      0.099370000000     0.478270000000     0.673740000000     0.0272115  
H216     H      0.177880000000     0.532720000000     0.776720000000     0.0424554  
H217     H      0.173580000000     0.546310000000     0.589020000000     0.0295141  
H218     H      0.325390000000     0.542510000000     0.734950000000     0.0410227  
H219     H      0.217960000000     0.512990000000     0.638450000000     0.0367429  
H220     H      0.329140000000     0.544890000000     0.923530000000     0.0305141  
H221     H      0.335040000000     0.474030000000     0.825460000000     0.0420672  
H222     H      0.287680000000     0.511020000000     0.871660000000     0.0382986  
H223     H      0.273540000000     0.535800000000     0.681840000000     0.0384193  
H224     H      0.174590000000     0.469070000000     0.681590000000     0.0418691  
H225     H      0.399270000000     0.546060000000     0.822470000000     0.0290108  
H226     H      0.714920000000     0.444790000000     0.782690000000     0.0393986  
H227     H      0.770720000000     0.497810000000     0.640150000000     0.0350088  
H228     H      0.862490000000     0.495850000000     0.734870000000     0.0395772  
H229     H      0.612400000000     0.557900000000     0.830260000000     0.031202   
H230     H      0.826320000000     0.457320000000     0.610390000000     0.0310333  
H231     H      0.733460000000     0.511700000000     0.863150000000     0.0359917  
H232     H      0.639540000000     0.520200000000     0.771080000000     0.0349712  
H233     H      0.679210000000     0.501330000000     0.918280000000     0.0360175  
H234     H      0.918170000000     0.506240000000     0.679450000000     0.0313436  
H235     H      0.768630000000     0.433520000000     0.729410000000     0.0440863  
H236     H      0.826190000000     0.507780000000     0.585820000000     0.0360128  
H237     H      0.733960000000     0.578400000000     0.773990000000     0.0436565  
H238     H      0.803510000000     0.542810000000     0.648650000000     0.0372279  
H239     H      0.584730000000     0.509250000000     0.826060000000     0.0329202  
H240     H      0.699760000000     0.467520000000     0.853860000000     0.0368541  
H241     H      0.645510000000     0.472380000000     0.800390000000     0.0361285  
H242     H      0.787470000000     0.567110000000     0.720480000000     0.0395756  
H243     H      0.856530000000     0.540920000000     0.702270000000     0.0388837  
H244     H      0.678550000000     0.552220000000     0.894550000000     0.0315034  
H245     H      0.801010000000     0.774800000000     0.939060000000     0.037353   
H246     H      0.745140000000     0.628240000000     0.994050000000     0.0478215  
H247     H      0.659480000000     0.729430000000     0.995350000000     0.0513939  
H248     H      0.910100000000     0.821580000000     0.044300000000     0.0318603  
H249     H      0.685610000000     0.601920000000     0.956980000000     0.0272591  
H250     H      0.782990000000     0.851960000000     0.010630000000     0.0231628  
H251     H      0.881690000000     0.764220000000     0.005270000000     0.0229485  
H252     H      0.833840000000     0.910810000000     0.999020000000     0.0486079  
H253     H      0.600980000000     0.678010000000     0.008030000000     0.0206967  
H254     H      0.746970000000     0.721090000000     0.930010000000     0.0471694  
H255     H      0.686830000000     0.577230000000     0.007110000000     0.0226078  
H256     H      0.791480000000     0.761710000000     0.072360000000     0.0404436  
H257     H      0.715180000000     0.639110000000     0.040230000000     0.0423635  
H258     H      0.932370000000     0.823700000000     0.993190000000     0.0483824  
H259     H      0.813770000000     0.847130000000     0.963970000000     0.033515   
H260     H      0.870230000000     0.796770000000     0.960840000000     0.033269   
H261     H      0.737440000000     0.708050000000     0.063330000000     0.0427118  
H262     H      0.665290000000     0.696580000000     0.040180000000     0.0442448  
H263     H      0.838050000000     0.885160000000     0.048500000000     0.0315481  
H264     H      0.700790000000     0.275520000000     0.066310000000     0.0425793  
H265     H      0.761980000000     0.128600000000     0.022280000000     0.0356997  
H266     H      0.847040000000     0.230460000000     0.023370000000     0.0403097  
H267     H      0.602690000000     0.321350000000     0.951400000000     0.0181134  
H268     H      0.819870000000     0.105610000000     0.064300000000     0.0272831  
H269     H      0.725560000000     0.349860000000     0.993140000000     0.0466533  
H270     H      0.625870000000     0.262820000000     0.993100000000     0.0458827  
H271     H      0.675620000000     0.409290000000     0.999040000000     0.0346785  
H272     H      0.906570000000     0.179380000000     0.015660000000     0.0207368  
H273     H      0.754450000000     0.223010000000     0.081670000000     0.0412914  
H274     H      0.820500000000     0.077570000000     0.015890000000     0.0289577  
H275     H      0.721420000000     0.257970000000     0.934730000000     0.0459335  
H276     H      0.794820000000     0.137840000000     0.977650000000     0.0466334  
H277     H      0.574770000000     0.321970000000     0.999810000000     0.0249203  
H278     H      0.692020000000     0.346410000000     0.038070000000     0.0419379  
H279     H      0.634180000000     0.295590000000     0.038150000000     0.0409769  
H280     H      0.775010000000     0.205430000000     0.950080000000     0.0368414  
H281     H      0.844370000000     0.196590000000     0.978930000000     0.049039   
H282     H      0.671570000000     0.380770000000     0.951020000000     0.0211593  
H283     H      0.248710000000     0.701170000000     0.058440000000     0.0375879  
H284     H      0.238200000000     0.868890000000     0.998940000000     0.0471252  
H285     H      0.166060000000     0.815070000000     0.096790000000     0.0362827  
H286     H      0.414590000000     0.705240000000     0.015470000000     0.0302203  
H287     H      0.197320000000     0.923560000000     0.033240000000     0.027284   
H288     H      0.287910000000     0.671680000000     0.001980000000     0.0315745  
H289     H      0.377370000000     0.741670000000     0.070440000000     0.0332771  
H290     H      0.336160000000     0.609580000000     0.002210000000     0.0303483  
H291     H      0.102480000000     0.852880000000     0.065290000000     0.0333737  
H292     H      0.196850000000     0.754330000000     0.063910000000     0.0373635  
H293     H      0.180880000000     0.915380000000     0.980200000000     0.0320937  
H294     H      0.342070000000     0.795360000000     0.033100000000     0.0408581  
H295     H      0.192600000000     0.838670000000     0.986970000000     0.0531133  
H296     H      0.427430000000     0.682100000000     0.064900000000     0.030688   
H297     H      0.139830000000     0.898540000000     0.109950000000     0.0193225  
H298     H      0.304050000000     0.654450000000     0.053210000000     0.0359621  
H299     H      0.356420000000     0.693810000000     0.091280000000     0.0384499  
H300     H      0.290440000000     0.850030000000     0.044860000000     0.0400214  
H301     H      0.152680000000     0.804740000000     0.043290000000     0.0377957  
H302     H      0.352240000000     0.653000000000     0.970880000000     0.0347872  
H303     H      0.266900000000     0.308250000000     0.082260000000     0.0390006  
H304     H      0.124890000000     0.251250000000     0.015690000000     0.0360186  
H305     H      0.223030000000     0.164320000000     0.034550000000     0.0395614  
H306     H      0.320040000000     0.413890000000     0.977230000000     0.0328443  
H307     H      0.093910000000     0.196110000000     0.056360000000     0.0232501  
H308     H      0.348250000000     0.285480000000     0.015460000000     0.0323923  
H309     H      0.262150000000     0.385940000000     0.014500000000     0.0326366  
H310     H      0.406460000000     0.337250000000     0.028550000000     0.0290813  
H311     H      0.172710000000     0.104390000000     0.028120000000     0.0245569  
H312     H      0.211620000000     0.255710000000     0.089970000000     0.0433373  
H313     H      0.074840000000     0.191400000000     0.004110000000     0.0253291  
H314     H      0.264310000000     0.291060000000     0.949070000000     0.0431795  
H315     H      0.139680000000     0.215750000000     0.974550000000     0.0453939  
H316     H      0.321340000000     0.436720000000     0.028120000000     0.030705   
H317     H      0.341660000000     0.318050000000     0.060850000000     0.0362859  
H318     H      0.292650000000     0.375240000000     0.060340000000     0.0356799  
H319     H      0.209490000000     0.237870000000     0.956920000000     0.038504   
H320     H      0.194560000000     0.164440000000     0.986570000000     0.0475164  
H321     H      0.383940000000     0.338890000000     0.977560000000     0.0323819  
H322     H      0.727700000000     0.072970000000     0.729340000000     0.039088   
H323     H      0.769060000000     0.997890000000     0.874070000000     0.0353674  
H324     H      0.858880000000     0.005030000000     0.777810000000     0.0269217  
H325     H      0.604230000000     0.985840000000     0.687420000000     0.042692   
H326     H      0.824490000000     0.032540000000     0.908880000000     0.0364229  
H327     H      0.734350000000     0.999210000000     0.649780000000     0.0441875  
H328     H      0.641430000000     0.021120000000     0.740500000000     0.0332104  
H329     H      0.682260000000     0.020340000000     0.593410000000     0.0267166  
H330     H      0.915730000000     0.992810000000     0.830920000000     0.0442756  
H331     H      0.779800000000     0.073660000000     0.785150000000     0.0439226  
H332     H      0.827030000000     0.978970000000     0.925320000000     0.0461699  
H333     H      0.721260000000     0.938020000000     0.737130000000     0.0438386  
H334     H      0.800470000000     0.953110000000     0.860610000000     0.0339098  
H335     H      0.590970000000     0.040110000000     0.682720000000     0.0349532  
H336     H      0.711200000000     0.050330000000     0.655460000000     0.0388198  
H337     H      0.658050000000     0.062560000000     0.706130000000     0.0359654  
H338     H      0.774470000000     0.938690000000     0.792120000000     0.0397169  
H339     H      0.852900000000     0.958480000000     0.808370000000     0.0355664  
H340     H      0.674840000000     0.970120000000     0.617090000000     0.0343041  
H341     H      0.287460000000     0.962110000000     0.721730000000     0.0393839  
H342     H      0.232830000000     0.021440000000     0.860290000000     0.0336086  
H343     H      0.139800000000     0.014570000000     0.767020000000     0.0356406  
H344     H      0.393510000000     0.071060000000     0.677700000000     0.0310809  
H345     H      0.179470000000     0.980700000000     0.892640000000     0.0363113  
H346     H      0.271790000000     0.029760000000     0.640290000000     0.0357925  
H347     H      0.362950000000     0.034250000000     0.735480000000     0.0361749  
H348     H      0.327200000000     0.017580000000     0.587080000000     0.0338077  
H349     H      0.084650000000     0.024960000000     0.823280000000     0.0286786  
H350     H      0.232690000000     0.952600000000     0.774080000000     0.0443562  
H351     H      0.177830000000     0.032230000000     0.914870000000     0.0296353  
H352     H      0.269610000000     0.096150000000     0.726960000000     0.0429928  
H353     H      0.198580000000     0.065200000000     0.850870000000     0.0369867  
H354     H      0.418960000000     0.021190000000     0.682380000000     0.0334827  
H355     H      0.303690000000     0.984320000000     0.650400000000     0.0465237  
H356     H      0.356230000000     0.986840000000     0.705560000000     0.046136   
H357     H      0.214580000000     0.086570000000     0.779160000000     0.0389893  
H358     H      0.145180000000     0.060470000000     0.798650000000     0.0375067  
H359     H      0.328970000000     0.068440000000     0.610990000000     0.0288746  
H360     H      0.291640000000     0.080280000000     0.280240000000     0.0388423  
H361     H      0.236950000000     0.013500000000     0.141180000000     0.0364849  
H362     H      0.145780000000     0.033800000000     0.234270000000     0.0394538  
H363     H      0.389290000000     0.967630000000     0.333190000000     0.0332024  
H364     H      0.187940000000     0.056040000000     0.105740000000     0.0253692  
H365     H      0.269860000000     0.019520000000     0.364880000000     0.032327   
H366     H      0.363360000000     0.003850000000     0.273310000000     0.032571   
H367     H      0.325350000000     0.032430000000     0.419060000000     0.0353377  
H368     H      0.089540000000     0.026350000000     0.179460000000     0.0207423  
H369     H      0.240110000000     0.089190000000     0.224580000000     0.0437457  
H370     H      0.179930000000     0.003770000000     0.087620000000     0.0250076  
H371     H      0.267770000000     0.947100000000     0.281390000000     0.0433854  
H372     H      0.199080000000     0.973720000000     0.153440000000     0.0452774  
H373     H      0.418380000000     0.015300000000     0.327690000000     0.0273929  
H374     H      0.304960000000     0.061990000000     0.353140000000     0.0366824  
H375     H      0.358880000000     0.052870000000     0.301030000000     0.0365759  
H376     H      0.215920000000     0.956140000000     0.225830000000     0.038771   
H377     H      0.146830000000     0.986230000000     0.204700000000     0.0458069  
H378     H      0.322440000000     0.979710000000     0.399840000000     0.034096   
H379     H      0.791000000000     0.941840000000     0.231060000000     0.0363557  
H380     H      0.735670000000     0.002230000000     0.370680000000     0.0365416  
H381     H      0.645100000000     0.997110000000     0.274830000000     0.0513061  
H382     H      0.898910000000     0.048150000000     0.184220000000     0.0287174  
H383     H      0.679160000000     0.963430000000     0.400820000000     0.0198582  
H384     H      0.774320000000     0.010180000000     0.150370000000     0.0231496  
H385     H      0.868930000000     0.011360000000     0.242140000000     0.0237216  
H386     H      0.827680000000     0.997430000000     0.094990000000     0.0443941  
H387     H      0.588810000000     0.010950000000     0.329060000000     0.0146786  
H388     H      0.736120000000     0.933610000000     0.283580000000     0.0465496  
H389     H      0.679980000000     0.014680000000     0.423690000000     0.0199154  
H390     H      0.776630000000     0.076260000000     0.236760000000     0.0411012  
H391     H      0.703290000000     0.047140000000     0.359920000000     0.0403573  
H392     H      0.922620000000     0.997290000000     0.186390000000     0.0350803  
H393     H      0.805700000000     0.964060000000     0.158810000000     0.0317446  
H394     H      0.859920000000     0.964620000000     0.211840000000     0.031702   
H395     H      0.721610000000     0.068000000000     0.289140000000     0.042734   
H396     H      0.651440000000     0.043550000000     0.305390000000     0.0457986  
H397     H      0.830720000000     0.048080000000     0.119110000000     0.0339581  
H398     H      0.072760000000     0.220070000000     0.784320000000     0.0387703  
H399     H      0.020740000000     0.270790000000     0.634770000000     0.0355994  
H400     H      0.030610000000     0.362700000000     0.730010000000     0.0403588  
H401     H      0.960700000000     0.117000000000     0.824100000000     0.0300311  
H402     H      0.062410000000     0.325930000000     0.604680000000     0.0251934  
H403     H      0.998820000000     0.240020000000     0.859920000000     0.0416926  
H404     H      0.004000000000     0.143480000000     0.769340000000     0.0355434  
H405     H      0.006720000000     0.185940000000     0.916890000000     0.0241942  
H406     H      0.024910000000     0.419800000000     0.676640000000     0.0308749  
H407     H      0.086050000000     0.271010000000     0.728490000000     0.0440128  
H408     H      0.011950000000     0.327570000000     0.581010000000     0.0276936  
H409     H      0.940780000000     0.236990000000     0.767920000000     0.0431593  
H410     H      0.977830000000     0.305850000000     0.644560000000     0.042172   
H411     H      0.009380000000     0.089520000000     0.825500000000     0.0316919  
H412     H      0.044640000000     0.207750000000     0.855570000000     0.0400796  
H413     H      0.047300000000     0.151620000000     0.804140000000     0.0383697  
H414     H      0.954080000000     0.288540000000     0.712690000000     0.0403266  
H415     H      0.984580000000     0.359970000000     0.698660000000     0.0456351  
H416     H      0.958260000000     0.184180000000     0.889350000000     0.0248936  
H417     H      0.926840000000     0.717900000000     0.734610000000     0.0399384  
H418     H      0.996640000000     0.772160000000     0.871650000000     0.0414519  
H419     H      0.983810000000     0.863840000000     0.776770000000     0.0393951  
H420     H      0.031900000000     0.611790000000     0.679780000000     0.0324729  
H421     H      0.960940000000     0.828760000000     0.905600000000     0.0309901  
H422     H      0.985580000000     0.736720000000     0.649040000000     0.0368339  
H423     H      0.997820000000     0.640530000000     0.739090000000     0.0375605  
H424     H      0.969490000000     0.681380000000     0.594430000000     0.0339658  
H425     H      0.999670000000     0.920650000000     0.829650000000     0.0349208  
H426     H      0.922390000000     0.771660000000     0.789310000000     0.0444944  
H427     H      0.013640000000     0.828800000000     0.923610000000     0.0313297  
H428     H      0.059870000000     0.733680000000     0.730300000000     0.0448258  
H429     H      0.040080000000     0.804880000000     0.857450000000     0.0406355  
H430     H      0.982330000000     0.586430000000     0.683140000000     0.0356942  
H431     H      0.942480000000     0.702640000000     0.660790000000     0.0372802  
H432     H      0.949470000000     0.647900000000     0.711750000000     0.0368897  
H433     H      0.055430000000     0.787420000000     0.784950000000     0.041158   
H434     H      0.031940000000     0.858140000000     0.804150000000     0.0374129  
H435     H      0.022290000000     0.683830000000     0.611850000000     0.0272779  
H436     H      0.065790000000     0.720490000000     0.290920000000     0.0396598  
H437     H      0.008650000000     0.778080000000     0.151860000000     0.0351687  
H438     H      0.056370000000     0.872430000000     0.232350000000     0.035608   
H439     H      0.941340000000     0.637670000000     0.335280000000     0.0238858  
H440     H      0.056700000000     0.819490000000     0.111390000000     0.0250679  
H441     H      0.998140000000     0.750740000000     0.373600000000     0.0412764  
H442     H      0.983600000000     0.660640000000     0.277400000000     0.0356228  
H443     H      0.998520000000     0.694010000000     0.426980000000     0.0374237  
H444     H      0.056130000000     0.924440000000     0.173670000000     0.0243668  
H445     H      0.084970000000     0.769170000000     0.234980000000     0.0428104  
H446     H      0.004740000000     0.829530000000     0.093370000000     0.0290813  
H447     H      0.940310000000     0.768160000000     0.288650000000     0.0426485  
H448     H      0.976700000000     0.823300000000     0.163030000000     0.0395171  
H449     H      0.984650000000     0.602580000000     0.329630000000     0.0287757  
H450     H      0.110100000000     0.874250000000     0.161550000000     0.016621   
H451     H      0.038730000000     0.712610000000     0.364960000000     0.0427824  
H452     H      0.030230000000     0.659510000000     0.308670000000     0.0352295  
H453     H      0.960130000000     0.818450000000     0.234250000000     0.0391506  
H454     H      0.005530000000     0.879470000000     0.210030000000     0.0367778  
H455     H      0.950400000000     0.697570000000     0.398880000000     0.0248603  
H456     H      0.952400000000     0.240790000000     0.235600000000     0.0435512  
H457     H      0.020560000000     0.381060000000     0.265660000000     0.0354946  
H458     H      0.048990000000     0.287250000000     0.355140000000     0.0389712  
H459     H      0.972420000000     0.186930000000     0.111550000000     0.0286257  
H460     H      0.064220000000     0.415640000000     0.316280000000     0.0219629  
H461     H      0.015160000000     0.153730000000     0.234350000000     0.034507   
H462     H      0.012670000000     0.244420000000     0.137970000000     0.0345839  
H463     H      0.024520000000     0.096400000000     0.180670000000     0.0296021  
H464     H      0.044790000000     0.340690000000     0.412340000000     0.0282173  
H465     H      0.964200000000     0.296830000000     0.286870000000     0.04008    
H466     H      0.012140000000     0.434490000000     0.322640000000     0.02693    
H467     H      0.084000000000     0.235700000000     0.210670000000     0.0402049  
H468     H      0.982460000000     0.367080000000     0.304450000000     0.0414243  
H469     H      0.021200000000     0.187270000000     0.084720000000     0.0324677  
H470     H      0.059700000000     0.160680000000     0.201110000000     0.0398258  
H471     H      0.058100000000     0.212120000000     0.145270000000     0.0382827  
H472     H      0.095600000000     0.292610000000     0.260900000000     0.0438877  
H473     H      0.000000000000     0.313980000000     0.357210000000     0.0397265  
H474     H      0.974780000000     0.121400000000     0.180380000000     0.0256073  
N1       N      0.529410000000     0.127600000000     0.372540000000    -0.23711    
N2       N      0.528290000000     0.187350000000     0.306390000000    -0.108713   
N3       N      0.479820000000     0.308860000000     0.183880000000    -0.111293   
N4       N      0.479140000000     0.374520000000     0.123780000000    -0.233747   
N5       N      0.492020000000     0.873710000000     0.388430000000    -0.226914   
N6       N      0.489280000000     0.807550000000     0.330570000000    -0.10925    
N7       N      0.522430000000     0.683970000000     0.207410000000    -0.111576   
N8       N      0.516800000000     0.626440000000     0.141230000000    -0.217426   
N9       N      0.494040000000     0.892140000000     0.639170000000    -0.202251   
N10      N      0.503100000000     0.831640000000     0.702760000000    -0.109585   
N11      N      0.495770000000     0.706280000000     0.829710000000    -0.111086   
N12      N      0.508920000000     0.641320000000     0.888140000000    -0.200025   
N13      N      0.483340000000     0.388900000000     0.870450000000    -0.227633   
N14      N      0.485160000000     0.329730000000     0.805370000000    -0.109161   
N15      N      0.533170000000     0.209860000000     0.683400000000    -0.111872   
N16      N      0.530170000000     0.144480000000     0.624540000000    -0.218723   
N17      N      0.887600000000     0.372010000000     0.478000000000    -0.22597    
N18      N      0.830480000000     0.305710000000     0.464560000000    -0.109153   
N19      N      0.703970000000     0.181870000000     0.483490000000    -0.11011    
N20      N      0.638060000000     0.124360000000     0.480430000000    -0.235139   
N21      N      0.865710000000     0.623750000000     0.508440000000    -0.211239   
N22      N      0.799350000000     0.680600000000     0.503130000000    -0.109689   
N23      N      0.673860000000     0.804540000000     0.521730000000    -0.110659   
N24      N      0.617750000000     0.871280000000     0.511030000000    -0.225387   
N25      N      0.138270000000     0.395530000000     0.486260000000    -0.237023   
N26      N      0.204100000000     0.338140000000     0.481080000000    -0.108321   
N27      N      0.330180000000     0.215060000000     0.500790000000    -0.110685   
N28      N      0.386360000000     0.148050000000     0.493730000000    -0.225515   
N29      N      0.117010000000     0.650110000000     0.495030000000    -0.225851   
N30      N      0.174920000000     0.717040000000     0.493710000000    -0.108828   
N31      N      0.299840000000     0.839430000000     0.528850000000    -0.111795   
N32      N      0.367180000000     0.896560000000     0.522910000000    -0.205579   
N33      N      0.874540000000     0.500360000000     0.375450000000    -0.226608   
N34      N      0.813040000000     0.497000000000     0.313480000000    -0.109145   
N35      N      0.693710000000     0.460100000000     0.187840000000    -0.111564   
N36      N      0.631520000000     0.469400000000     0.126620000000    -0.226123   
N37      N      0.128060000000     0.512580000000     0.375860000000    -0.236803   
N38      N      0.189600000000     0.515360000000     0.312390000000    -0.108598   
N39      N      0.316580000000     0.480230000000     0.192570000000    -0.111192   
N40      N      0.379810000000     0.486260000000     0.131280000000    -0.232935   
N41      N      0.127600000000     0.520290000000     0.630500000000    -0.220027   
N42      N      0.187220000000     0.533790000000     0.693840000000    -0.107637   
N43      N      0.316360000000     0.538150000000     0.817830000000    -0.109674   
N44      N      0.376570000000     0.524980000000     0.880580000000    -0.224836   
N45      N      0.877000000000     0.495810000000     0.627930000000    -0.202053   
N46      N      0.813880000000     0.491110000000     0.689880000000    -0.109645   
N47      N      0.689540000000     0.520680000000     0.814420000000    -0.111514   
N48      N      0.627590000000     0.514100000000     0.877330000000    -0.204841   
N49      N      0.638500000000     0.623140000000     0.997910000000    -0.202218   
N50      N      0.704870000000     0.680940000000     0.989110000000    -0.0995452  
N51      N      0.830230000000     0.805290000000     0.013430000000    -0.122114   
N52      N      0.887850000000     0.871890000000     0.007570000000    -0.201903   
N53      N      0.868360000000     0.124560000000     0.023830000000    -0.229275   
N54      N      0.801610000000     0.181770000000     0.027640000000    -0.104831   
N55      N      0.678250000000     0.303330000000     0.988790000000    -0.10202    
N56      N      0.621190000000     0.370170000000     0.991970000000    -0.226729   
N57      N      0.139580000000     0.892460000000     0.027030000000    -0.228315   
N58      N      0.207820000000     0.841180000000     0.051940000000    -0.106933   
N59      N      0.331050000000     0.712200000000     0.032490000000    -0.111445   
N60      N      0.388330000000     0.645210000000     0.025170000000    -0.214689   
N61      N      0.118470000000     0.143830000000     0.023780000000    -0.23798    
N62      N      0.175480000000     0.210950000000     0.030470000000    -0.105575   
N63      N      0.302800000000     0.333580000000     0.009000000000    -0.111549   
N64      N      0.368880000000     0.391240000000     0.015150000000    -0.234069   
N65      N      0.875630000000     0.999100000000     0.883980000000    -0.190659   
N66      N      0.812010000000     0.008520000000     0.824830000000    -0.119805   
N67      N      0.688750000000     0.003530000000     0.697590000000    -0.11061    
N68      N      0.629840000000     0.015240000000     0.634330000000    -0.214215   
N69      N      0.127130000000     0.016270000000     0.873940000000    -0.217182   
N70      N      0.188660000000     0.011650000000     0.811920000000    -0.110483   
N71      N      0.314750000000     0.037060000000     0.690170000000    -0.108719   
N72      N      0.377770000000     0.028250000000     0.629940000000    -0.203114   
N73      N      0.131980000000     0.028510000000     0.127600000000    -0.240537   
N74      N      0.194160000000     0.030380000000     0.188840000000    -0.105054   
N75      N      0.313840000000     0.006150000000     0.317180000000    -0.112452   
N76      N      0.375400000000     0.012970000000     0.379050000000    -0.221785   
N77      N      0.629500000000     0.002330000000     0.381250000000    -0.250923   
N78      N      0.692800000000     0.993670000000     0.320930000000    -0.099634   
N79      N      0.819270000000     0.016120000000     0.198660000000    -0.12083    
N80      N      0.879880000000     0.007410000000     0.135880000000    -0.220124   
N81      N      0.025880000000     0.377730000000     0.624000000000    -0.218875   
N82      N      0.030510000000     0.313750000000     0.684560000000    -0.10789    
N83      N      0.996330000000     0.194160000000     0.811810000000    -0.104641   
N84      N      0.998310000000     0.133500000000     0.875460000000    -0.217634   
N85      N      0.996720000000     0.879440000000     0.882490000000    -0.201395   
N86      N      0.984260000000     0.815440000000     0.822760000000    -0.108132   
N87      N      0.997910000000     0.691010000000     0.695750000000    -0.110729   
N88      N      0.989720000000     0.630180000000     0.632840000000    -0.202064   
N89      N      0.033390000000     0.879400000000     0.128870000000    -0.226804   
N90      N      0.035410000000     0.821640000000     0.194520000000    -0.110736   
N91      N      0.987500000000     0.709190000000     0.322820000000    -0.107444   
N92      N      0.986440000000     0.644570000000     0.382520000000    -0.225385   
N93      N      0.034800000000     0.393110000000     0.371020000000    -0.237941   
N94      N      0.039340000000     0.332300000000     0.306850000000    -0.107955   
N95      N      0.008690000000     0.201780000000     0.188810000000    -0.110663   
N96      N      0.012270000000     0.137050000000     0.128630000000    -0.234363   
O1       O      0.007720000000     0.117100000000     0.059250000000    -1.0584     
O2       O      0.016730000000     0.896640000000     0.061260000000    -0.813251   
O3       O      0.949700000000     0.004780000000     0.115810000000    -1.01907    
O4       O      0.062040000000     0.022420000000     0.110790000000    -1.07963    
O5       O      0.112840000000     0.022510000000     0.057960000000    -1.04482    
O6       O      0.895950000000     0.003780000000     0.065400000000    -0.787048   
O7       O      0.019070000000     0.949730000000     0.112880000000    -0.981163   
O8       O      0.011400000000     0.065790000000     0.111940000000    -1.05719    
O9       O      0.052960000000     0.971620000000     0.048680000000    -2.09942    
O10      O      0.962610000000     0.050160000000     0.050920000000    -2.08838    
O11      O      0.963950000000     0.959260000000     0.054760000000    -0.866172   
O12      O      0.012770000000     0.017170000000     0.013710000000    -2.57828    
O13      O      0.007140000000     0.898760000000     0.951870000000    -0.730235   
O14      O      0.998400000000     0.116210000000     0.946240000000    -0.932422   
O15      O      0.900740000000     0.943930000000     0.008150000000    -0.739541   
O16      O      0.117060000000     0.958360000000     0.006840000000    -0.946171   
O17      O      0.106750000000     0.072070000000     0.014230000000    -1.05557    
O18      O      0.891340000000     0.055810000000     0.015980000000    -0.772356   
O19      O      0.946270000000     0.002910000000     0.899670000000    -0.577873   
O20      O      0.057530000000     0.012710000000     0.893800000000    -0.619521   
O21      O      0.895870000000     0.997310000000     0.953890000000    -0.698514   
O22      O      0.110460000000     0.018600000000     0.944540000000    -0.946746   
O23      O      0.956820000000     0.894880000000     0.006790000000    -0.746726   
O24      O      0.938990000000     0.112120000000     0.012540000000    -0.957797   
O25      O      0.051150000000     0.120190000000     0.012780000000    -1.06807    
O26      O      0.068900000000     0.903190000000     0.017230000000    -0.764424   
O27      O      0.002040000000     0.950660000000     0.898640000000    -0.572319   
O28      O      0.001390000000     0.063260000000     0.894760000000    -0.623082   
O29      O      0.044320000000     0.055310000000     0.963800000000    -1.98497    
O30      O      0.967990000000     0.966320000000     0.968530000000    -1.58679    
O31      O      0.954200000000     0.047240000000     0.961360000000    -1.23655    
O32      O      0.049480000000     0.963880000000     0.959440000000    -1.23168    
O33      O      0.024880000000     0.406350000000     0.441860000000    -1.03739    
O34      O      0.993480000000     0.623500000000     0.451350000000    -0.803914   
O35      O      0.944200000000     0.507810000000     0.394120000000    -1.01338    
O36      O      0.058070000000     0.511520000000     0.394600000000    -1.07038    
O37      O      0.110060000000     0.512420000000     0.446210000000    -1.05568    
O38      O      0.892430000000     0.498840000000     0.445780000000    -0.791474   
O39      O      0.994360000000     0.573240000000     0.397090000000    -1.01174    
O40      O      0.016180000000     0.460170000000     0.392440000000    -1.07812    
O41      O      0.043000000000     0.556460000000     0.459080000000    -2.10577    
O42      O      0.966600000000     0.462930000000     0.455460000000    -2.08461    
O43      O      0.952820000000     0.552720000000     0.457450000000    -0.876602   
O44      O      0.011740000000     0.502310000000     0.493390000000    -2.56855    
O45      O      0.990190000000     0.614690000000     0.561870000000    -0.725806   
O46      O      0.015930000000     0.398390000000     0.554930000000    -0.92379    
O47      O      0.889870000000     0.554780000000     0.506030000000    -0.747406   
O48      O      0.105030000000     0.577950000000     0.498280000000    -0.950712   
O49      O      0.114300000000     0.464300000000     0.491930000000    -1.05543    
O50      O      0.898920000000     0.443030000000     0.491160000000    -0.776266   
O51      O      0.947470000000     0.500080000000     0.610070000000    -0.586298   
O52      O      0.059290000000     0.506280000000     0.612000000000    -0.629118   
O53      O      0.895230000000     0.499490000000     0.557390000000    -0.719312   
O54      O      0.110000000000     0.519150000000     0.560150000000    -0.930947   
O55      O      0.937270000000     0.612470000000     0.508170000000    -0.751694   
O56      O      0.955380000000     0.395610000000     0.490020000000    -0.939287   
O57      O      0.067420000000     0.407390000000     0.491100000000    -1.04639    
O58      O      0.048600000000     0.625330000000     0.500060000000    -0.767242   
O59      O      0.997100000000     0.560230000000     0.612390000000    -0.587057   
O60      O      0.013720000000     0.448250000000     0.609360000000    -0.630298   
O61      O      0.050800000000     0.467980000000     0.539910000000    -1.98157    
O62      O      0.961070000000     0.542410000000     0.542490000000    -1.61352    
O63      O      0.960880000000     0.459580000000     0.545610000000    -1.26237    
O64      O      0.041040000000     0.557800000000     0.549380000000    -1.2572     
O65      O      0.610930000000     0.006350000000     0.450960000000    -1.0678     
O66      O      0.393380000000     0.018640000000     0.449100000000    -0.785092   
O67      O      0.497810000000     0.945340000000     0.402090000000    -0.995812   
O68      O      0.516600000000     0.059080000000     0.395240000000    -1.05333    
O69      O      0.521140000000     0.114480000000     0.443470000000    -1.05891    
O70      O      0.495760000000     0.896130000000     0.457300000000    -0.806499   
O71      O      0.445290000000     0.008730000000     0.397750000000    -1.00238    
O72      O      0.559390000000     0.006270000000     0.398900000000    -1.06528    
O73      O      0.466870000000     0.056470000000     0.458160000000    -2.08314    
O74      O      0.544280000000     0.963540000000     0.464430000000    -2.07623    
O75      O      0.454220000000     0.966260000000     0.462020000000    -0.86081    
O76      O      0.512510000000     0.018250000000     0.497020000000    -2.57532    
O77      O      0.396300000000     0.021300000000     0.560270000000    -0.71718    
O78      O      0.611580000000     0.009850000000     0.564050000000    -0.929857   
O79      O      0.438600000000     0.907720000000     0.515780000000    -0.748481   
O80      O      0.454890000000     0.124350000000     0.495600000000    -0.966432   
O81      O      0.567260000000     0.112640000000     0.488140000000    -1.0699     
O82      O      0.549600000000     0.895610000000     0.507680000000    -0.785634   
O83      O      0.498700000000     0.962190000000     0.617360000000    -0.575233   
O84      O      0.514570000000     0.074450000000     0.611740000000    -0.627706   
O85      O      0.492150000000     0.906710000000     0.567930000000    -0.72722    
O86      O      0.519100000000     0.122800000000     0.556070000000    -0.948512   
O87      O      0.390900000000     0.964960000000     0.511840000000    -0.725017   
O88      O      0.605890000000     0.943280000000     0.507520000000    -0.951745   
O89      O      0.614630000000     0.056320000000     0.492360000000    -1.05262    
O90      O      0.398970000000     0.076260000000     0.496650000000    -0.772817   
O91      O      0.448210000000     0.022880000000     0.613240000000    -0.591018   
O92      O      0.559950000000     0.017430000000     0.615970000000    -0.625839   
O93      O      0.551140000000     0.054040000000     0.542760000000    -2.00878    
O94      O      0.462190000000     0.978610000000     0.547070000000    -1.60033    
O95      O      0.542350000000     0.964270000000     0.554550000000    -1.25765    
O96      O      0.461580000000     0.061310000000     0.548300000000    -1.23957    
O97      O      0.392240000000     0.460260000000     0.012870000000    -1.03944    
O98      O      0.609220000000     0.441630000000     0.999840000000    -0.786625   
O99      O      0.491670000000     0.402750000000     0.941150000000    -1.01203    
O100     O      0.488200000000     0.396450000000     0.054910000000    -1.04668    
O101     O      0.491000000000     0.445220000000     0.109860000000    -1.049      
O102     O      0.493110000000     0.458110000000     0.892070000000    -0.799892   
O103     O      0.552780000000     0.394080000000     0.996420000000    -0.996162   
O104     O      0.439780000000     0.404150000000     0.009760000000    -1.06991    
O105     O      0.541100000000     0.455970000000     0.046300000000    -2.08343    
O106     O      0.454560000000     0.469140000000     0.963860000000    -2.07195    
O107     O      0.544020000000     0.459400000000     0.956100000000    -0.867312   
O108     O      0.494870000000     0.498960000000     0.014100000000    -2.5563     
O109     O      0.615380000000     0.553700000000     0.002570000000    -0.713279   
O110     O      0.400810000000     0.573900000000     0.015850000000    -0.927605   
O111     O      0.557300000000     0.512210000000     0.896390000000    -0.748305   
O112     O      0.562760000000     0.486870000000     0.111730000000    -0.954445   
O113     O      0.449750000000     0.494210000000     0.113560000000    -1.03755    
O114     O      0.445530000000     0.512720000000     0.897410000000    -0.789846   
O115     O      0.510120000000     0.619280000000     0.957710000000    -0.570459   
O116     O      0.513090000000     0.613570000000     0.070030000000    -0.629808   
O117     O      0.507730000000     0.569530000000     0.902180000000    -0.72843    
O118     O      0.509230000000     0.557530000000     0.118120000000    -0.946357   
O119     O      0.610660000000     0.504770000000     0.947550000000    -0.727959   
O120     O      0.395130000000     0.520040000000     0.950520000000    -0.930305   
O121     O      0.397420000000     0.500740000000     0.062600000000    -1.0499     
O122     O      0.613340000000     0.485980000000     0.058350000000    -0.771308   
O123     O      0.567730000000     0.610760000000     0.008050000000    -0.588413   
O124     O      0.456790000000     0.621650000000     0.022120000000    -0.619398   
O125     O      0.464070000000     0.547660000000     0.054260000000    -1.97931    
O126     O      0.544000000000     0.545370000000     0.969410000000    -1.60344    
O127     O      0.464040000000     0.559440000000     0.964500000000    -1.26003    
O128     O      0.554660000000     0.545590000000     0.050840000000    -1.23143    
S1       S      0.582380000000     0.106670000000     0.318140000000    -0.0344867  
S2       S      0.436970000000     0.889180000000     0.334250000000    -0.0215611  
S3       S      0.553190000000     0.912870000000     0.686950000000     0.00123504 
S4       S      0.426610000000     0.405240000000     0.818260000000    -0.0215733  
S5       S      0.916790000000     0.323940000000     0.422350000000    -0.0163862  
S6       S      0.814480000000     0.598090000000     0.454180000000    -0.0124379  
S7       S      0.183000000000     0.413750000000     0.424280000000    -0.0246321  
S8       S      0.093430000000     0.703760000000     0.442000000000    -0.0167359  
S9       S      0.886370000000     0.559830000000     0.324490000000    -0.0208573  
S10      S      0.176910000000     0.573070000000     0.390480000000    -0.0148954  
S11      S      0.093370000000     0.543130000000     0.698040000000    -0.00718086 
S12      S      0.897180000000     0.439930000000     0.680290000000    -0.0100324  
S13      S      0.620110000000     0.675700000000     0.941640000000    -0.0131495  
S14      S      0.882970000000     0.177700000000     0.080580000000    -0.0189102  
S15      S      0.162370000000     0.136900000000     0.088520000000    -0.0240095  
S16      S      0.893090000000     0.058560000000     0.834600000000     0.00240322 
S17      S      0.107130000000     0.959040000000     0.822850000000     0.00567175 
S18      S      0.118150000000     0.089470000000     0.176220000000    -0.0267227  
S19      S      0.608840000000     0.944390000000     0.331290000000    -0.0174717  
S20      S      0.087230000000     0.390210000000     0.671770000000    -0.0227159  
S21      S      0.934750000000     0.898260000000     0.837520000000    -0.00645263 
S22      S      0.102010000000     0.352280000000     0.375260000000    -0.0271982  
Tb1      Tb     0.005680000000     0.007360000000     0.076060000000     6.33194    
Tb2      Tb     0.010480000000     0.937580000000     0.008500000000     4.41798    
Tb3      Tb     0.998220000000     0.078500000000     0.004010000000     6.33297    
Tb4      Tb     0.934750000000     0.003610000000     0.010170000000     4.28097    
Tb5      Tb     0.074740000000     0.012220000000     0.002530000000     6.25161    
Tb6      Tb     0.004080000000     0.008750000000     0.935460000000     3.04621    
Tb7      Tb     0.000980000000     0.513860000000     0.431890000000     6.38466    
Tb8      Tb     0.997020000000     0.579980000000     0.502990000000     4.40319    
Tb9      Tb     0.008060000000     0.438830000000     0.499760000000     6.16642    
Tb10     Tb     0.932920000000     0.501770000000     0.499900000000     4.37683    
Tb11     Tb     0.072440000000     0.517470000000     0.502780000000     6.28285    
Tb12     Tb     0.004500000000     0.504750000000     0.572200000000     3.1759     
Tb13     Tb     0.502130000000     0.005350000000     0.435800000000     6.24718    
Tb14     Tb     0.433860000000     0.017940000000     0.503340000000     4.27479    
Tb15     Tb     0.573280000000     0.003880000000     0.507200000000     6.28003    
Tb16     Tb     0.498300000000     0.940520000000     0.508460000000     4.43327    
Tb17     Tb     0.508340000000     0.081730000000     0.501950000000     6.38195    
Tb18     Tb     0.505310000000     0.017180000000     0.575970000000     3.13815    
Tb19     Tb     0.498880000000     0.436690000000     0.000200000000     6.27373    
Tb20     Tb     0.573370000000     0.498990000000     0.004710000000     4.30479    
Tb21     Tb     0.433850000000     0.514060000000     0.006820000000     6.17396    
Tb22     Tb     0.501180000000     0.509680000000     0.935850000000     4.44339    
Tb23     Tb     0.506430000000     0.502840000000     0.076290000000     6.28472    
Tb24     Tb     0.508130000000     0.577520000000     0.012640000000     3.11856    


