data_structure

_audit_creation_method RASPA-1.0
_audit_creation_date 2023-5-25
_audit_author_name 'Poobodin Mano'

_cell_length_a    32.0917
_cell_length_b    31.9088
_cell_length_c    32.063
_cell_angle_alpha 90
_cell_angle_beta  90
_cell_angle_gamma 90
_cell_volume      32832.8

_symmetry_cell_setting          triclinic
_symmetry_space_group_name_Hall 'P 1'
_symmetry_space_group_name_H-M  'P 1'
_symmetry_Int_Tables_number     1

_symmetry_equiv_pos_as_xyz 'x,y,z'

loop_
_atom_site_label
_atom_site_type_symbol
_atom_site_fract_x
_atom_site_fract_y
_atom_site_fract_z
_atom_site_charge
C1       C      0.003360000000     0.106710000000     0.099070000000     0.728024   
C2       C      0.016110000000     0.912370000000     0.104570000000     0.701432   
C3       C      0.902450000000     0.000850000000     0.097590000000     0.649098   
C4       C      0.094570000000     0.029780000000     0.105470000000     0.731757   
C5       C      0.016290000000     0.910220000000     0.912400000000     0.584213   
C6       C      0.005650000000     0.102920000000     0.905650000000     0.649313   
C7       C      0.919100000000     0.902490000000     0.001900000000     0.595467   
C8       C      0.110200000000     0.919620000000     0.021790000000     0.68975    
C9       C      0.090220000000     0.112410000000     0.024320000000     0.715399   
C10      C      0.898600000000     0.094550000000     0.004480000000     0.706353   
C11      C      0.915870000000     0.994960000000     0.905780000000     0.584929   
C12      C      0.106200000000     0.023140000000     0.912750000000     0.639035   
C13      C      0.020540000000     0.416850000000     0.406250000000     0.738759   
C14      C      0.991540000000     0.609480000000     0.411340000000     0.693805   
C15      C      0.901810000000     0.501780000000     0.412870000000     0.702393   
C16      C      0.095740000000     0.506000000000     0.405330000000     0.752513   
C17      C      0.996350000000     0.601910000000     0.602910000000     0.570019   
C18      C      0.023610000000     0.410220000000     0.599540000000     0.6705     
C19      C      0.901300000000     0.597060000000     0.512540000000     0.619421   
C20      C      0.092420000000     0.614750000000     0.494820000000     0.705626   
C21      C      0.105790000000     0.421170000000     0.486050000000     0.726931   
C22      C      0.913250000000     0.404600000000     0.501240000000     0.702061   
C23      C      0.912990000000     0.504870000000     0.604400000000     0.593519   
C24      C      0.105170000000     0.507420000000     0.597940000000     0.679124   
C25      C      0.592510000000     0.015470000000     0.403970000000     0.736211   
C26      C      0.399720000000     0.025190000000     0.416240000000     0.688002   
C27      C      0.487590000000     0.912810000000     0.408520000000     0.688988   
C28      C      0.517340000000     0.106350000000     0.411080000000     0.742166   
C29      C      0.414700000000     0.010830000000     0.607320000000     0.585405   
C30      C      0.606640000000     0.002950000000     0.597440000000     0.629792   
C31      C      0.400350000000     0.921790000000     0.515460000000     0.58886    
C32      C      0.413970000000     0.114880000000     0.508820000000     0.703515   
C33      C      0.605550000000     0.096770000000     0.487100000000     0.726271   
C34      C      0.590840000000     0.903330000000     0.492110000000     0.679335   
C35      C      0.498510000000     0.912110000000     0.600400000000     0.566175   
C36      C      0.526830000000     0.103840000000     0.604090000000     0.669853   
C37      C      0.400070000000     0.419950000000     0.015260000000     0.714428   
C38      C      0.592830000000     0.400790000000     0.014760000000     0.676309   
C39      C      0.494480000000     0.409220000000     0.907990000000     0.676202   
C40      C      0.481530000000     0.412760000000     0.101980000000     0.721359   
C41      C      0.608570000000     0.593060000000     0.002680000000     0.554308   
C42      C      0.417150000000     0.613470000000     0.006900000000     0.659758   
C43      C      0.603410000000     0.498540000000     0.913040000000     0.590627   
C44      C      0.597510000000     0.488290000000     0.105340000000     0.692773   
C45      C      0.405280000000     0.500480000000     0.097440000000     0.70868    
C46      C      0.411890000000     0.509260000000     0.904330000000     0.692647   
C47      C      0.519650000000     0.600790000000     0.909340000000     0.580612   
C48      C      0.506820000000     0.605860000000     0.101600000000     0.647279   
C49      C      0.509660000000     0.210630000000     0.360760000000    -0.0482646  
C50      C      0.485690000000     0.308830000000     0.152600000000    -0.0451597  
C51      C      0.468140000000     0.395150000000     0.176330000000     0.0322087  
C52      C      0.465510000000     0.338910000000     0.121040000000     0.0321045  
C53      C      0.529020000000     0.280610000000     0.233850000000    -0.0537911  
C54      C      0.467120000000     0.239090000000     0.279440000000    -0.0558756  
C55      C      0.486790000000     0.289890000000     0.226120000000     0.0603872  
C56      C      0.488820000000     0.363230000000     0.205460000000    -0.0449673  
C57      C      0.509350000000     0.229930000000     0.287270000000     0.0649527  
C58      C      0.508320000000     0.156480000000     0.307640000000    -0.123459   
C59      C      0.540040000000     0.250930000000     0.264140000000    -0.0508232  
C60      C      0.529480000000     0.124820000000     0.336770000000     0.357273   
C61      C      0.530110000000     0.180860000000     0.392420000000     0.0511848  
C62      C      0.456100000000     0.268820000000     0.249190000000    -0.0505035  
C63      C      0.489010000000     0.809680000000     0.356650000000    -0.0455232  
C64      C      0.498320000000     0.710880000000     0.150860000000    -0.0398726  
C65      C      0.512610000000     0.624160000000     0.175920000000     0.0327438  
C66      C      0.516740000000     0.680210000000     0.119360000000     0.0182139  
C67      C      0.534050000000     0.750550000000     0.244260000000    -0.0532231  
C68      C      0.451600000000     0.772160000000     0.262660000000    -0.0509591  
C69      C      0.501350000000     0.730570000000     0.223370000000     0.0624238  
C70      C      0.494490000000     0.657610000000     0.204640000000    -0.0450422  
C71      C      0.484300000000     0.791890000000     0.283800000000     0.0642715  
C72      C      0.489850000000     0.864530000000     0.304020000000    -0.124232   
C73      C      0.525750000000     0.781070000000     0.274240000000    -0.0557399  
C74      C      0.472780000000     0.896880000000     0.334690000000     0.356442   
C75      C      0.471930000000     0.839550000000     0.389600000000     0.0404858  
C76      C      0.459920000000     0.741730000000     0.232550000000    -0.0549946  
C77      C      0.516860000000     0.705000000000     0.857120000000    -0.0420432  
C78      C      0.503720000000     0.805880000000     0.649580000000    -0.0391628  
C79      C      0.492990000000     0.892940000000     0.675030000000     0.004128   
C80      C      0.485580000000     0.837700000000     0.618490000000     0.0178246  
C81      C      0.470260000000     0.766410000000     0.744970000000    -0.0509798  
C82      C      0.552450000000     0.742370000000     0.761120000000    -0.0496619  
C83      C      0.502750000000     0.785490000000     0.722690000000     0.0626948  
C84      C      0.511070000000     0.858690000000     0.703250000000    -0.0327767  
C85      C      0.519980000000     0.723550000000     0.783660000000     0.0633986  
C86      C      0.513690000000     0.650540000000     0.804520000000    -0.11854    
C87      C      0.478630000000     0.735700000000     0.775090000000    -0.0544619  
C88      C      0.531230000000     0.617570000000     0.834700000000     0.34433    
C89      C      0.534390000000     0.674540000000     0.889770000000     0.0291154  
C90      C      0.544070000000     0.772980000000     0.730870000000    -0.0546553  
C91      C      0.524670000000     0.151990000000     0.707330000000    -0.0430567  
C92      C      0.503770000000     0.358320000000     0.805440000000    -0.0424175  
C93      C      0.480830000000     0.335100000000     0.890300000000     0.0319851  
C94      C      0.483430000000     0.390680000000     0.833990000000     0.0242869  
C95      C      0.471980000000     0.263680000000     0.763940000000    -0.0510631  
C96      C      0.556290000000     0.246200000000     0.750150000000    -0.0507182  
C97      C      0.502420000000     0.285110000000     0.786780000000     0.0624409  
C98      C      0.501280000000     0.304880000000     0.859530000000    -0.0450232  
C99      C      0.525840000000     0.224880000000     0.727210000000     0.0655533  
C100     C      0.526580000000     0.206610000000     0.654120000000    -0.124778   
C101     C      0.483450000000     0.233760000000     0.734360000000    -0.0551866  
C102     C      0.546080000000     0.176680000000     0.622420000000     0.358277   
C103     C      0.544180000000     0.120200000000     0.677550000000     0.0357087  
C104     C      0.544810000000     0.276110000000     0.779770000000    -0.053991   
C105     C      0.868390000000     0.296830000000     0.490030000000    -0.0494126  
C106     C      0.661360000000     0.197900000000     0.483610000000    -0.0439139  
C107     C      0.680900000000     0.108990000000     0.476400000000     0.0298057  
C108     C      0.628570000000     0.167780000000     0.466380000000     0.033833   
C109     C      0.757000000000     0.230610000000     0.448690000000    -0.0534216  
C110     C      0.774780000000     0.256300000000     0.530140000000    -0.0474687  
C111     C      0.735120000000     0.212890000000     0.482110000000     0.0660513  
C112     C      0.711340000000     0.141650000000     0.493310000000    -0.0414312  
C113     C      0.796570000000     0.274130000000     0.496720000000     0.0634774  
C114     C      0.812450000000     0.347620000000     0.489310000000    -0.123158   
C115     C      0.787400000000     0.261110000000     0.455770000000    -0.0538722  
C116     C      0.840220000000     0.382210000000     0.506840000000     0.351062   
C117     C      0.899670000000     0.328820000000     0.506920000000     0.0482665  
C118     C      0.744190000000     0.225990000000     0.523040000000    -0.0558383  
C119     C      0.841290000000     0.698420000000     0.517310000000    -0.0459341  
C120     C      0.635040000000     0.793860000000     0.485250000000    -0.0429384  
C121     C      0.663390000000     0.880330000000     0.495550000000     0.0354273  
C122     C      0.602670000000     0.827430000000     0.496010000000     0.0255395  
C123     C      0.721890000000     0.756680000000     0.539900000000    -0.0512288  
C124     C      0.751340000000     0.724570000000     0.464310000000    -0.0508737  
C125     C      0.705260000000     0.771470000000     0.502280000000     0.0616355  
C126     C      0.691540000000     0.843570000000     0.484340000000    -0.0463857  
C127     C      0.768600000000     0.710440000000     0.501890000000     0.0659656  
C128     C      0.792710000000     0.640960000000     0.520660000000    -0.12079    
C129     C      0.753280000000     0.726350000000     0.539850000000    -0.0560594  
C130     C      0.825780000000     0.608510000000     0.509060000000     0.349321   
C131     C      0.877850000000     0.669880000000     0.506190000000     0.0392756  
C132     C      0.719890000000     0.754830000000     0.464350000000    -0.053987   
C133     C      0.313800000000     0.173240000000     0.500570000000    -0.0469017  
C134     C      0.213810000000     0.380100000000     0.487100000000    -0.0471491  
C135     C      0.129490000000     0.348190000000     0.475410000000     0.0271067  
C136     C      0.180150000000     0.408930000000     0.468950000000     0.038459   
C137     C      0.257430000000     0.286080000000     0.453170000000    -0.0524915  
C138     C      0.281570000000     0.270320000000     0.535480000000    -0.0474464  
C139     C      0.238390000000     0.308130000000     0.485780000000     0.0656119  
C140     C      0.164920000000     0.322570000000     0.494200000000    -0.0411307  
C141     C      0.299870000000     0.247520000000     0.502940000000     0.0637798  
C142     C      0.370910000000     0.222620000000     0.495910000000    -0.124649   
C143     C      0.288000000000     0.256070000000     0.461520000000    -0.0541489  
C144     C      0.401970000000     0.191070000000     0.514050000000     0.358108   
C145     C      0.341780000000     0.139140000000     0.518840000000     0.0417148  
C146     C      0.251120000000     0.300490000000     0.527110000000    -0.0558119  
C147     C      0.192580000000     0.672300000000     0.498420000000    -0.0458379  
C148     C      0.292980000000     0.878890000000     0.511340000000    -0.040269   
C149     C      0.377080000000     0.849130000000     0.528750000000     0.0201524  
C150     C      0.325430000000     0.909210000000     0.529230000000     0.0188834  
C151     C      0.248360000000     0.785610000000     0.547280000000    -0.0526806  
C152     C      0.227430000000     0.768170000000     0.464420000000    -0.0490669  
C153     C      0.268830000000     0.806930000000     0.515040000000     0.062859   
C154     C      0.342630000000     0.821490000000     0.510660000000    -0.040588   
C155     C      0.207350000000     0.746440000000     0.496650000000     0.0642316  
C156     C      0.135780000000     0.722330000000     0.502580000000    -0.120799   
C157     C      0.217890000000     0.755600000000     0.538320000000    -0.0549142  
C158     C      0.104600000000     0.690660000000     0.484650000000     0.34979    
C159     C      0.164180000000     0.638550000000     0.480070000000     0.0444961  
C160     C      0.257930000000     0.798150000000     0.473380000000    -0.0545125  
C161     C      0.796810000000     0.485700000000     0.365530000000    -0.0419668  
C162     C      0.698560000000     0.484010000000     0.159220000000    -0.043058   
C163     C      0.610970000000     0.470720000000     0.179120000000     0.0346375  
C164     C      0.668910000000     0.467910000000     0.125640000000     0.0263957  
C165     C      0.724780000000     0.520290000000     0.243580000000    -0.0545665  
C166     C      0.764920000000     0.453030000000     0.282560000000    -0.0563787  
C167     C      0.714570000000     0.478870000000     0.232370000000     0.0620821  
C168     C      0.642860000000     0.486510000000     0.210720000000    -0.0457367  
C169     C      0.774880000000     0.494450000000     0.293930000000     0.0656173  
C170     C      0.848090000000     0.491290000000     0.310440000000    -0.126086   
C171     C      0.754640000000     0.527850000000     0.274250000000    -0.0506226  
C172     C      0.880720000000     0.509870000000     0.339680000000     0.359917   
C173     C      0.826670000000     0.503620000000     0.398000000000     0.0330523  
C174     C      0.734830000000     0.445440000000     0.252060000000    -0.0530918  
C175     C      0.143260000000     0.491900000000     0.298990000000    -0.0521582  
C176     C      0.350030000000     0.499720000000     0.199480000000    -0.0466933  
C177     C      0.330780000000     0.486780000000     0.111610000000     0.0332041  
C178     C      0.384270000000     0.484640000000     0.169890000000     0.0347475  
C179     C      0.257910000000     0.456060000000     0.234320000000    -0.0519459  
C180     C      0.233860000000     0.536700000000     0.258450000000    -0.051017   
C181     C      0.276960000000     0.490910000000     0.215740000000     0.0608081  
C182     C      0.298810000000     0.501350000000     0.143990000000    -0.0460249  
C183     C      0.215020000000     0.501880000000     0.277240000000     0.0647829  
C184     C      0.198200000000     0.493070000000     0.350370000000    -0.126993   
C185     C      0.227210000000     0.461360000000     0.264850000000    -0.0564954  
C186     C      0.169360000000     0.509830000000     0.384480000000     0.360465   
C187     C      0.110820000000     0.508160000000     0.330070000000     0.0527513  
C188     C      0.264580000000     0.531420000000     0.227980000000    -0.0540707  
C189     C      0.161300000000     0.512450000000     0.699030000000    -0.0390758  
C190     C      0.365170000000     0.500230000000     0.798540000000    -0.0423811  
C191     C      0.339580000000     0.522390000000     0.883080000000     0.03033    
C192     C      0.398020000000     0.515380000000     0.829320000000     0.0269278  
C193     C      0.277870000000     0.547990000000     0.755770000000    -0.051938   
C194     C      0.250830000000     0.467380000000     0.734710000000    -0.0496549  
C195     C      0.294710000000     0.513160000000     0.776170000000     0.0643273  
C196     C      0.309780000000     0.506860000000     0.849480000000    -0.0428343  
C197     C      0.233770000000     0.502230000000     0.714520000000     0.0669335  
C198     C      0.211940000000     0.511740000000     0.642990000000    -0.1248     
C199     C      0.247500000000     0.542730000000     0.725160000000    -0.0553281  
C200     C      0.179810000000     0.496600000000     0.611310000000     0.359047   
C201     C      0.126610000000     0.496890000000     0.670650000000     0.0267589  
C202     C      0.281070000000     0.472650000000     0.765430000000    -0.0541853  
C203     C      0.864710000000     0.498370000000     0.710520000000    -0.0433089  
C204     C      0.658230000000     0.507570000000     0.810350000000    -0.0416697  
C205     C      0.678040000000     0.489150000000     0.897270000000     0.0210377  
C206     C      0.623610000000     0.491860000000     0.839170000000     0.0231335  
C207     C      0.749260000000     0.462460000000     0.773500000000    -0.0514415  
C208     C      0.774860000000     0.543280000000     0.751610000000    -0.0488712  
C209     C      0.730880000000     0.497110000000     0.793050000000     0.0630361  
C210     C      0.709750000000     0.505040000000     0.865290000000    -0.0406434  
C211     C      0.792970000000     0.508630000000     0.731790000000     0.0643364  
C212     C      0.809990000000     0.500450000000     0.658670000000    -0.120948   
C213     C      0.780060000000     0.468020000000     0.743140000000    -0.0545375  
C214     C      0.839760000000     0.515960000000     0.624730000000     0.347884   
C215     C      0.897530000000     0.513570000000     0.679300000000     0.0322848  
C216     C      0.744090000000     0.537710000000     0.782020000000    -0.0544162  
C217     C      0.875820000000     0.792900000000     0.992620000000    -0.0153112  
C218     C      0.668600000000     0.693530000000     0.002350000000    -0.0666854  
C219     C      0.684100000000     0.604070000000     0.992010000000     0.0428078  
C220     C      0.632980000000     0.664940000000     0.988270000000     0.0375603  
C221     C      0.761870000000     0.724020000000     0.958190000000    -0.0608773  
C222     C      0.785490000000     0.750980000000     0.037700000000    -0.0417956  
C223     C      0.742260000000     0.706770000000     0.993310000000     0.0761976  
C224     C      0.717350000000     0.635800000000     0.005740000000    -0.0686446  
C225     C      0.804530000000     0.768820000000     0.002570000000     0.0489803  
C226     C      0.819010000000     0.842370000000     0.990860000000    -0.0916852  
C227     C      0.792750000000     0.754730000000     0.962620000000    -0.0395777  
C228     C      0.846390000000     0.878510000000     0.006110000000     0.322366   
C229     C      0.907010000000     0.826290000000     0.007390000000     0.00862257 
C230     C      0.754690000000     0.720220000000     0.033270000000    -0.0704828  
C231     C      0.838190000000     0.193530000000     0.012170000000    -0.0707005  
C232     C      0.633160000000     0.292240000000     0.011200000000    -0.0575523  
C233     C      0.663260000000     0.375820000000     0.032330000000     0.0286466  
C234     C      0.602470000000     0.325150000000     0.026990000000     0.0370967  
C235     C      0.722240000000     0.246200000000     0.054220000000    -0.053557   
C236     C      0.745130000000     0.225610000000     0.972560000000    -0.0397426  
C237     C      0.703370000000     0.266730000000     0.020610000000     0.0535599  
C238     C      0.691220000000     0.340920000000     0.016040000000    -0.0544955  
C239     C      0.764600000000     0.205690000000     0.006180000000     0.0488613  
C240     C      0.790280000000     0.134880000000     0.014310000000    -0.142447   
C241     C      0.752730000000     0.215890000000     0.047200000000    -0.0521224  
C242     C      0.822970000000     0.104610000000     0.997340000000     0.376469   
C243     C      0.873380000000     0.166560000000     0.995020000000     0.0794978  
C244     C      0.714760000000     0.256010000000     0.979570000000    -0.0474814  
C245     C      0.374780000000     0.721600000000     0.020040000000    -0.0425178  
C246     C      0.168710000000     0.820320000000     0.023960000000    -0.0544894  
C247     C      0.184780000000     0.909100000000     0.037780000000     0.036494   
C248     C      0.133940000000     0.848450000000     0.040380000000     0.0306586  
C249     C      0.262810000000     0.787270000000     0.061930000000    -0.0515086  
C250     C      0.283910000000     0.766760000000     0.979790000000    -0.0397654  
C251     C      0.242400000000     0.807160000000     0.028800000000     0.054742   
C252     C      0.217650000000     0.878480000000     0.021630000000    -0.0560496  
C253     C      0.303810000000     0.746370000000     0.012890000000     0.0552669  
C254     C      0.317530000000     0.672250000000     0.017250000000    -0.137869   
C255     C      0.293280000000     0.757030000000     0.054180000000    -0.0535112  
C256     C      0.344910000000     0.637750000000     0.998990000000     0.380638   
C257     C      0.405490000000     0.689620000000     0.002280000000     0.023544   
C258     C      0.253390000000     0.796920000000     0.987520000000    -0.0456815  
C259     C      0.133360000000     0.220300000000     0.024510000000    -0.0604203  
C260     C      0.340330000000     0.320350000000     0.035010000000    -0.0441719  
C261     C      0.324310000000     0.407560000000     0.012550000000     0.0214421  
C262     C      0.376270000000     0.346760000000     0.017880000000     0.02374    
C263     C      0.249650000000     0.283870000000     0.990300000000    -0.0445233  
C264     C      0.221240000000     0.266380000000     0.070850000000    -0.0494064  
C265     C      0.267150000000     0.305240000000     0.024250000000     0.0521883  
C266     C      0.291360000000     0.377420000000     0.029900000000    -0.0432474  
C267     C      0.204120000000     0.244600000000     0.036930000000     0.052139   
C268     C      0.189630000000     0.170230000000     0.033560000000    -0.134481   
C269     C      0.218470000000     0.253830000000     0.996420000000    -0.0463096  
C270     C      0.159530000000     0.136250000000     0.048710000000     0.356838   
C271     C      0.100770000000     0.188110000000     0.038830000000     0.051342   
C272     C      0.252480000000     0.296440000000     0.064720000000    -0.0545544  
C273     C      0.813770000000     0.982200000000     0.849110000000    -0.0355742  
C274     C      0.714290000000     0.004500000000     0.643080000000    -0.078166   
C275     C      0.628360000000     0.991700000000     0.670070000000     0.0476534  
C276     C      0.681500000000     0.991920000000     0.610670000000     0.0593929  
C277     C      0.750270000000     0.030450000000     0.728180000000    -0.0610016  
C278     C      0.784680000000     0.957400000000     0.762090000000    -0.0604436  
C279     C      0.736430000000     0.991020000000     0.714140000000     0.0708057  
C280     C      0.663860000000     0.004520000000     0.699080000000    -0.0739754  
C281     C      0.797830000000     0.996830000000     0.776770000000     0.0840824  
C282     C      0.869220000000     0.984790000000     0.798490000000    -0.113367   
C283     C      0.780660000000     0.033170000000     0.759290000000    -0.0622773  
C284     C      0.901380000000     0.999200000000     0.830680000000     0.349528   
C285     C      0.842320000000     0.995780000000     0.884820000000     0.037607   
C286     C      0.754130000000     0.954670000000     0.731100000000    -0.0513116  
C287     C      0.312960000000     0.017310000000     0.662460000000    -0.0594255  
C288     C      0.212230000000     0.024380000000     0.867560000000    -0.0573642  
C289     C      0.126680000000     0.037430000000     0.839860000000     0.0215061  
C290     C      0.179750000000     0.040930000000     0.898330000000     0.0339586  
C291     C      0.246640000000     0.987500000000     0.786470000000    -0.0447046  
C292     C      0.285160000000     0.054520000000     0.745480000000    -0.0546832  
C293     C      0.234550000000     0.028900000000     0.795690000000     0.0513093  
C294     C      0.161340000000     0.021060000000     0.811550000000    -0.0529263  
C295     C      0.296770000000     0.013080000000     0.735800000000     0.0540792  
C296     C      0.368600000000     0.020430000000     0.713450000000    -0.118324   
C297     C      0.277480000000     0.979800000000     0.756700000000    -0.0403343  
C298     C      0.400450000000     0.002710000000     0.682570000000     0.335178   
C299     C      0.341900000000     0.999560000000     0.629060000000     0.0659514  
C300     C      0.254250000000     0.062210000000     0.775190000000    -0.0510936  
C301     C      0.293070000000     0.030780000000     0.370160000000    -0.0593539  
C302     C      0.195750000000     0.047430000000     0.162710000000    -0.0443486  
C303     C      0.107740000000     0.032530000000     0.180790000000     0.023549   
C304     C      0.167700000000     0.032040000000     0.127370000000     0.0317714  
C305     C      0.227260000000     0.999670000000     0.254570000000    -0.0148884  
C306     C      0.254650000000     0.078720000000     0.280300000000    -0.0581937  
C307     C      0.210680000000     0.035600000000     0.235770000000     0.0443815  
C308     C      0.139710000000     0.047990000000     0.212660000000    -0.0403432  
C309     C      0.271730000000     0.042730000000     0.298630000000     0.0752504  
C310     C      0.344080000000     0.029110000000     0.314480000000    -0.138318   
C311     C      0.257480000000     0.003040000000     0.285760000000    -0.0892064  
C312     C      0.379490000000     0.041470000000     0.343880000000     0.361709   
C313     C      0.326050000000     0.042940000000     0.402530000000     0.0444754  
C314     C      0.224290000000     0.075340000000     0.249170000000    -0.0453429  
C315     C      0.639430000000     0.001750000000     0.298660000000    -0.0531695  
C316     C      0.846250000000     0.009990000000     0.199020000000    -0.0648352  
C317     C      0.828210000000     0.987460000000     0.112740000000     0.0424367  
C318     C      0.881460000000     0.993570000000     0.171270000000     0.0558557  
C319     C      0.756620000000     0.966560000000     0.238630000000    -0.0617536  
C320     C      0.727220000000     0.047880000000     0.252300000000    -0.0398847  
C321     C      0.773510000000     0.999890000000     0.215720000000     0.0799283  
C322     C      0.795560000000     0.004020000000     0.143400000000    -0.069881   
C323     C      0.710370000000     0.014570000000     0.275220000000     0.0481085  
C324     C      0.694010000000     0.015950000000     0.348980000000    -0.133675   
C325     C      0.725400000000     0.973700000000     0.268260000000    -0.0368838  
C326     C      0.663140000000     0.034840000000     0.380050000000     0.356873   
C327     C      0.605730000000     0.018780000000     0.328060000000     0.0341624  
C328     C      0.758590000000     0.040780000000     0.222870000000    -0.0721459  
C329     C      0.024640000000     0.305000000000     0.646530000000    -0.0467016  
C330     C      0.014030000000     0.206520000000     0.853130000000    -0.0424474  
C331     C      0.001390000000     0.118840000000     0.830730000000     0.0136226  
C332     C      0.995640000000     0.176630000000     0.885430000000     0.0291484  
C333     C      0.053300000000     0.235210000000     0.771050000000    -0.0553939  
C334     C      0.987550000000     0.273190000000     0.727980000000    -0.0560492  
C335     C      0.011880000000     0.223750000000     0.779950000000     0.0646423  
C336     C      0.019550000000     0.151570000000     0.801240000000    -0.0359566  
C337     C      0.028970000000     0.284570000000     0.718980000000     0.0657378  
C338     C      0.023390000000     0.357790000000     0.701310000000    -0.119373   
C339     C      0.061630000000     0.265390000000     0.740700000000    -0.0507113  
C340     C      0.041090000000     0.391090000000     0.672150000000     0.346898   
C341     C      0.041620000000     0.336480000000     0.614880000000     0.0487001  
C342     C      0.979220000000     0.242910000000     0.758210000000    -0.0528141  
C343     C      0.006520000000     0.857250000000     0.809270000000    -0.040317   
C344     C      0.003590000000     0.650710000000     0.707840000000    -0.034982   
C345     C      0.980440000000     0.674940000000     0.623280000000     0.0180009  
C346     C      0.986520000000     0.617640000000     0.677790000000     0.0111388  
C347     C      0.036750000000     0.734910000000     0.738260000000    -0.0533886  
C348     C      0.970790000000     0.772350000000     0.781520000000    -0.0567247  
C349     C      0.995450000000     0.723020000000     0.729230000000     0.0610557  
C350     C      0.997790000000     0.705520000000     0.655730000000    -0.0399052  
C351     C      0.012110000000     0.784070000000     0.790700000000     0.065179   
C352     C      0.007250000000     0.804490000000     0.863520000000    -0.117693   
C353     C      0.044850000000     0.765120000000     0.768790000000    -0.0508489  
C354     C      0.025180000000     0.835150000000     0.895630000000     0.343741   
C355     C      0.024590000000     0.890570000000     0.838410000000     0.0279233  
C356     C      0.962690000000     0.742010000000     0.751090000000    -0.0521281  
C357     C      0.015610000000     0.810460000000     0.157550000000    -0.046122   
C358     C      0.996250000000     0.714010000000     0.363510000000    -0.0452277  
C359     C      0.977410000000     0.628370000000     0.338140000000     0.0327285  
C360     C      0.977300000000     0.683640000000     0.394920000000     0.0304267  
C361     C      0.036210000000     0.743850000000     0.283200000000    -0.0540889  
C362     C      0.972940000000     0.783880000000     0.238360000000    -0.0556758  
C363     C      0.994180000000     0.733970000000     0.291050000000     0.0649363  
C364     C      0.996560000000     0.660820000000     0.309040000000    -0.0438404  
C365     C      0.014960000000     0.793980000000     0.230700000000     0.0659385  
C366     C      0.009810000000     0.866170000000     0.209200000000    -0.125119   
C367     C      0.046380000000     0.773790000000     0.253250000000    -0.0485913  
C368     C      0.028240000000     0.898290000000     0.179230000000     0.359228   
C369     C      0.034410000000     0.840310000000     0.125580000000     0.0433561  
C370     C      0.962770000000     0.754120000000     0.268460000000    -0.0522894  
C371     C      0.014820000000     0.369310000000     0.301030000000    -0.0480463  
C372     C      0.017570000000     0.160860000000     0.201680000000    -0.046267   
C373     C      0.996880000000     0.181830000000     0.115570000000     0.0345957  
C374     C      0.999850000000     0.126720000000     0.173230000000     0.0344271  
C375     C      0.976580000000     0.252450000000     0.241420000000    -0.0547249  
C376     C      0.058100000000     0.278580000000     0.257830000000    -0.0502278  
C377     C      0.009760000000     0.234090000000     0.219640000000     0.0625921  
C378     C      0.014650000000     0.213040000000     0.147090000000    -0.0465867  
C379     C      0.024920000000     0.296990000000     0.279540000000     0.0635861  
C380     C      0.023720000000     0.314730000000     0.353050000000    -0.121829   
C381     C      0.983970000000     0.283570000000     0.271230000000    -0.0566199  
C382     C      0.042400000000     0.345610000000     0.384330000000     0.355996   
C383     C      0.031500000000     0.402850000000     0.330970000000     0.0516511  
C384     C      0.050740000000     0.247320000000     0.228170000000    -0.0560668  
F1       F      0.571750000000     0.124520000000     0.328240000000    -0.442838   
F2       F      0.430310000000     0.901330000000     0.328420000000    -0.451632   
F3       F      0.573320000000     0.612160000000     0.826810000000    -0.447443   
F4       F      0.588830000000     0.182540000000     0.621970000000    -0.449811   
F5       F      0.831720000000     0.387310000000     0.548890000000    -0.444759   
F6       F      0.819280000000     0.595690000000     0.468300000000    -0.444559   
F7       F      0.408890000000     0.200450000000     0.555650000000    -0.44891    
F8       F      0.098560000000     0.699020000000     0.442700000000    -0.445342   
F9       F      0.882960000000     0.552740000000     0.333310000000    -0.450119   
F10      F      0.177450000000     0.552040000000     0.390560000000    -0.448666   
F11      F      0.185520000000     0.454160000000     0.604270000000    -0.441793   
F12      F      0.834120000000     0.558630000000     0.619170000000    -0.446735   
F13      F      0.837710000000     0.886230000000     0.047720000000    -0.448686   
F14      F      0.815380000000     0.097490000000     0.955410000000    -0.446276   
F15      F      0.337610000000     0.634810000000     0.956520000000    -0.449424   
F16      F      0.160110000000     0.135200000000     0.091890000000    -0.461972   
F17      F      0.909740000000     0.041340000000     0.824510000000    -0.447247   
F18      F      0.406320000000     0.960550000000     0.690850000000    -0.443513   
F19      F      0.387880000000     0.083780000000     0.339130000000    -0.453787   
F20      F      0.663920000000     0.078000000000     0.375780000000    -0.445259   
F21      F      0.083720000000     0.393530000000     0.678190000000    -0.444348   
F22      F      0.067430000000     0.827590000000     0.900190000000    -0.443292   
F23      F      0.070210000000     0.903370000000     0.187920000000    -0.450705   
F24      F      0.085300000000     0.343640000000     0.380970000000    -0.4636     
H1       H      0.977140000000     0.975550000000     0.036150000000    -1.25577    
H2       H      0.026510000000     0.035500000000     0.031070000000    -1.06367    
H3       H      0.963080000000     0.073700000000     0.964980000000    -0.52368    
H4       H      0.081340000000     0.975800000000     0.972630000000    -0.492942   
H5       H      0.970780000000     0.536940000000     0.476100000000    -1.27563    
H6       H      0.029340000000     0.486470000000     0.478500000000    -1.08008    
H7       H      0.973580000000     0.434430000000     0.542460000000    -0.517314   
H8       H      0.073040000000     0.551840000000     0.540180000000    -0.535754   
H9       H      0.469070000000     0.982770000000     0.476590000000    -1.24778    
H10      H      0.528500000000     0.032710000000     0.479820000000    -1.0584     
H11      H      0.572520000000     0.964810000000     0.537690000000    -0.509721   
H12      H      0.474760000000     0.082630000000     0.547270000000    -0.536738   
H13      H      0.532430000000     0.472050000000     0.977020000000    -1.25875    
H14      H      0.476790000000     0.484210000000     0.029840000000    -1.0763     
H15      H      0.439460000000     0.550080000000     0.965360000000    -0.513541   
H16      H      0.543930000000     0.540600000000     0.077110000000    -0.548764   
H17      H      0.423490000000     0.275540000000     0.243690000000     0.0467766  
H18      H      0.519880000000     0.243190000000     0.367890000000     0.0422166  
H19      H      0.516960000000     0.148760000000     0.274910000000     0.0849867  
H20      H      0.434300000000     0.395580000000     0.183510000000     0.0222516  
H21      H      0.564150000000     0.187190000000     0.392810000000     0.0449185  
H22      H      0.474640000000     0.276490000000     0.145760000000     0.0376946  
H23      H      0.480470000000     0.371340000000     0.238180000000     0.0374424  
H24      H      0.477120000000     0.330890000000     0.089380000000     0.0294627  
H25      H      0.516900000000     0.093180000000     0.329620000000    -0.00689761 
H26      H      0.442750000000     0.223290000000     0.296670000000     0.0489488  
H27      H      0.517720000000     0.188280000000     0.423940000000     0.0327276  
H28      H      0.553400000000     0.296330000000     0.216560000000     0.0421551  
H29      H      0.475180000000     0.209150000000     0.364450000000     0.0445463  
H30      H      0.480910000000     0.426740000000     0.183330000000     0.032316   
H31      H      0.520140000000     0.309500000000     0.148460000000     0.0392805  
H32      H      0.523300000000     0.365530000000     0.202220000000     0.0392689  
H33      H      0.572660000000     0.244210000000     0.269640000000     0.0566559  
H34      H      0.473860000000     0.153490000000     0.310630000000     0.0725708  
H35      H      0.431270000000     0.333570000000     0.121220000000     0.0214087  
H36      H      0.434130000000     0.726800000000     0.216660000000     0.0422557  
H37      H      0.477770000000     0.777480000000     0.363930000000     0.0398632  
H38      H      0.479390000000     0.873110000000     0.272030000000     0.0832389  
H39      H      0.546150000000     0.619910000000     0.183530000000     0.0261225  
H40      H      0.437650000000     0.834970000000     0.391990000000     0.042801   
H41      H      0.509880000000     0.742880000000     0.143290000000     0.0376637  
H42      H      0.503210000000     0.649770000000     0.237340000000     0.0375405  
H43      H      0.503400000000     0.687550000000     0.088180000000     0.0354399  
H44      H      0.487850000000     0.927420000000     0.327560000000    -0.0162262  
H45      H      0.419610000000     0.780320000000     0.269700000000     0.0554477  
H46      H      0.485800000000     0.830900000000     0.420170000000     0.0322393  
H47      H      0.566040000000     0.742270000000     0.237330000000     0.0457073  
H48      H      0.523680000000     0.809670000000     0.358330000000     0.0381159  
H49      H      0.496530000000     0.594030000000     0.182630000000     0.0278142  
H50      H      0.463720000000     0.710930000000     0.147900000000     0.0384091  
H51      H      0.459860000000     0.657100000000     0.202250000000     0.0390425  
H52      H      0.551560000000     0.796000000000     0.290070000000     0.0409022  
H53      H      0.524550000000     0.865570000000     0.304640000000     0.0540183  
H54      H      0.550970000000     0.685340000000     0.117560000000     0.0313948  
H55      H      0.569790000000     0.787030000000     0.714120000000     0.0432933  
H56      H      0.528740000000     0.736970000000     0.864270000000     0.0416822  
H57      H      0.522970000000     0.641840000000     0.772210000000     0.0817988  
H58      H      0.459750000000     0.897640000000     0.683500000000     0.0752601  
H59      H      0.568710000000     0.678950000000     0.891580000000     0.0476999  
H60      H      0.490640000000     0.774440000000     0.642180000000     0.0384435  
H61      H      0.503710000000     0.866780000000     0.736200000000     0.0441785  
H62      H      0.497650000000     0.830020000000     0.586890000000     0.0364581  
H63      H      0.515300000000     0.587380000000     0.828010000000    -0.0104136  
H64      H      0.584420000000     0.733350000000     0.767140000000     0.0549383  
H65      H      0.521210000000     0.683080000000     0.920670000000     0.0376578  
H66      H      0.438310000000     0.775560000000     0.739070000000     0.0507676  
H67      H      0.482250000000     0.705610000000     0.859690000000     0.0434821  
H68      H      0.509710000000     0.922710000000     0.681710000000     0.0548185  
H69      H      0.538160000000     0.804320000000     0.645520000000     0.039948   
H70      H      0.545600000000     0.858130000000     0.699770000000     0.0395728  
H71      H      0.452890000000     0.721610000000     0.791780000000     0.0454377  
H72      H      0.479020000000     0.650100000000     0.806130000000     0.0569867  
H73      H      0.451150000000     0.833860000000     0.617630000000     0.0366667  
H74      H      0.568920000000     0.292260000000     0.797040000000     0.0426639  
H75      H      0.534280000000     0.143910000000     0.739710000000     0.0406002  
H76      H      0.537460000000     0.239000000000     0.647190000000     0.087761   
H77      H      0.446620000000     0.329550000000     0.890140000000     0.0250951  
H78      H      0.578330000000     0.119120000000     0.683380000000     0.0491156  
H79      H      0.494980000000     0.365670000000     0.772650000000     0.0404062  
H80      H      0.490650000000     0.272520000000     0.866940000000     0.0378138  
H81      H      0.496860000000     0.421920000000     0.826630000000     0.0372705  
H82      H      0.533860000000     0.185040000000     0.591080000000    -0.00586747 
H83      H      0.588980000000     0.239630000000     0.744930000000     0.0559431  
H84      H      0.531300000000     0.088730000000     0.684860000000     0.0357584  
H85      H      0.439290000000     0.270340000000     0.769070000000     0.0477713  
H86      H      0.490110000000     0.149560000000     0.705300000000     0.0429174  
H87      H      0.492540000000     0.327720000000     0.922090000000     0.0275478  
H88      H      0.538270000000     0.360840000000     0.808280000000     0.0398213  
H89      H      0.535730000000     0.306170000000     0.863600000000     0.0385999  
H90      H      0.459320000000     0.217680000000     0.717050000000     0.0477129  
H91      H      0.492070000000     0.205840000000     0.650490000000     0.0709267  
H92      H      0.449530000000     0.391970000000     0.826880000000     0.0293241  
H93      H      0.727450000000     0.213050000000     0.549360000000     0.0513527  
H94      H      0.877890000000     0.265110000000     0.500910000000     0.0401132  
H95      H      0.779740000000     0.353900000000     0.499100000000     0.0855159  
H96      H      0.688890000000     0.103070000000     0.443320000000     0.0674891  
H97      H      0.904520000000     0.322790000000     0.540730000000     0.0394525  
H98      H      0.656270000000     0.229250000000     0.469240000000     0.04449    
H99      H      0.743640000000     0.131060000000     0.486300000000     0.0398578  
H100     H      0.597330000000     0.178590000000     0.476770000000     0.0449713  
H101     H      0.831800000000     0.411870000000     0.490670000000    -0.00929109 
H102     H      0.781230000000     0.266360000000     0.561750000000     0.0584035  
H103     H      0.930050000000     0.323690000000     0.491030000000     0.0230807  
H104     H      0.750110000000     0.221000000000     0.417040000000     0.052308   
H105     H      0.869560000000     0.297080000000     0.455310000000     0.0368324  
H106     H      0.685600000000     0.079290000000     0.493910000000     0.0370259  
H107     H      0.657250000000     0.201000000000     0.517970000000     0.055861   
H108     H      0.707820000000     0.143730000000     0.527810000000     0.0449566  
H109     H      0.803380000000     0.274810000000     0.429360000000     0.0408742  
H110     H      0.813550000000     0.348440000000     0.454580000000     0.0539887  
H111     H      0.629240000000     0.169570000000     0.431760000000     0.0473459  
H112     H      0.707660000000     0.765880000000     0.434880000000     0.0423605  
H113     H      0.847370000000     0.729970000000     0.503770000000     0.0405566  
H114     H      0.761750000000     0.629280000000     0.510100000000     0.0891633  
H115     H      0.669380000000     0.889390000000     0.528530000000     0.0278861  
H116     H      0.885860000000     0.674620000000     0.472750000000     0.0404788  
H117     H      0.624110000000     0.763330000000     0.498000000000     0.0388552  
H118     H      0.723470000000     0.850510000000     0.496080000000     0.0382736  
H119     H      0.574550000000     0.822330000000     0.476360000000     0.0321803  
H120     H      0.821390000000     0.580710000000     0.529560000000     0.0150004  
H121     H      0.762860000000     0.712570000000     0.434890000000     0.0571722  
H122     H      0.905400000000     0.679880000000     0.524760000000     0.0339374  
H123     H      0.711020000000     0.769350000000     0.569280000000     0.0466469  
H124     H      0.839470000000     0.701880000000     0.551850000000     0.0429424  
H125     H      0.672340000000     0.907560000000     0.475800000000     0.027301   
H126     H      0.637360000000     0.790730000000     0.450730000000     0.0384758  
H127     H      0.693300000000     0.840460000000     0.449770000000     0.0390017  
H128     H      0.766100000000     0.715890000000     0.569290000000     0.045919   
H129     H      0.791520000000     0.644460000000     0.555220000000     0.0714438  
H130     H      0.592870000000     0.823160000000     0.529030000000     0.0297587  
H131     H      0.236860000000     0.317110000000     0.552840000000     0.0533205  
H132     H      0.281580000000     0.168300000000     0.512480000000     0.0406435  
H133     H      0.381450000000     0.254820000000     0.504150000000     0.0843839  
H134     H      0.127330000000     0.339880000000     0.441990000000     0.0708932  
H135     H      0.336750000000     0.137800000000     0.553130000000     0.0421609  
H136     H      0.244490000000     0.389600000000     0.473980000000     0.0446864  
H137     H      0.159320000000     0.288900000000     0.486990000000     0.0422567  
H138     H      0.185700000000     0.441200000000     0.480720000000     0.0488176  
H139     H      0.431990000000     0.194950000000     0.497150000000    -0.0166191  
H140     H      0.290440000000     0.264100000000     0.567480000000     0.0572236  
H141     H      0.331770000000     0.108520000000     0.505650000000     0.0326178  
H142     H      0.247890000000     0.291630000000     0.421250000000     0.0507885  
H143     H      0.313130000000     0.170010000000     0.465970000000     0.0427682  
H144     H      0.099880000000     0.338780000000     0.490780000000     0.0448204  
H145     H      0.215030000000     0.384220000000     0.521580000000     0.0625693  
H146     H      0.164860000000     0.326430000000     0.528730000000     0.0494544  
H147     H      0.301700000000     0.238960000000     0.435810000000     0.0445634  
H148     H      0.370870000000     0.219930000000     0.461260000000     0.0579051  
H149     H      0.183740000000     0.409730000000     0.434460000000     0.0296444  
H150     H      0.273410000000     0.813960000000     0.447860000000     0.046014   
H151     H      0.224740000000     0.667000000000     0.486480000000     0.0458124  
H152     H      0.125540000000     0.754460000000     0.493770000000     0.08258    
H153     H      0.379010000000     0.843450000000     0.562920000000     0.0345734  
H154     H      0.168440000000     0.637980000000     0.445650000000     0.0681864  
H155     H      0.261600000000     0.888910000000     0.522260000000     0.0396716  
H156     H      0.348250000000     0.788630000000     0.520910000000     0.0385499  
H157     H      0.319980000000     0.940680000000     0.515400000000     0.038649   
H158     H      0.074330000000     0.695340000000     0.500870000000    -0.0140344  
H159     H      0.219810000000     0.761330000000     0.432230000000     0.0580989  
H160     H      0.174440000000     0.607660000000     0.492360000000     0.0417605  
H161     H      0.256540000000     0.791860000000     0.579450000000     0.0474971  
H162     H      0.193210000000     0.669060000000     0.533010000000     0.0390449  
H163     H      0.407190000000     0.839150000000     0.514810000000     0.038104   
H164     H      0.293530000000     0.880890000000     0.476660000000     0.042116   
H165     H      0.344320000000     0.822400000000     0.475970000000     0.0423716  
H166     H      0.203070000000     0.739120000000     0.563820000000     0.0415612  
H167     H      0.135430000000     0.720110000000     0.537240000000     0.0533944  
H168     H      0.320460000000     0.911850000000     0.563450000000     0.0355213  
H169     H      0.727430000000     0.413470000000     0.243480000000     0.0449856  
H170     H      0.764390000000     0.493790000000     0.374910000000     0.0463925  
H171     H      0.854060000000     0.503200000000     0.278340000000     0.0816848  
H172     H      0.606900000000     0.436380000000     0.183490000000     0.0235796  
H173     H      0.818290000000     0.536920000000     0.403830000000     0.0785351  
H174     H      0.730270000000     0.471520000000     0.152590000000     0.0367423  
H175     H      0.633210000000     0.475810000000     0.242330000000     0.0380552  
H176     H      0.678800000000     0.481140000000     0.095140000000     0.0331507  
H177     H      0.911410000000     0.496150000000     0.331110000000    -0.0223017  
H178     H      0.780520000000     0.426720000000     0.297030000000     0.0407157  
H179     H      0.821990000000     0.486230000000     0.427700000000     0.0486824  
H180     H      0.709870000000     0.546660000000     0.228510000000     0.042767   
H181     H      0.799720000000     0.450920000000     0.365140000000     0.0372575  
H182     H      0.580580000000     0.485950000000     0.185920000000     0.0285925  
H183     H      0.699890000000     0.518860000000     0.157660000000     0.0399992  
H184     H      0.642800000000     0.521410000000     0.210420000000     0.0403008  
H185     H      0.762350000000     0.559840000000     0.282520000000     0.0584609  
H186     H      0.851340000000     0.456520000000     0.309860000000     0.0526363  
H187     H      0.671870000000     0.433250000000     0.123760000000     0.0268941  
H188     H      0.278870000000     0.558870000000     0.214250000000     0.0422757  
H189     H      0.133960000000     0.502160000000     0.267140000000     0.0411521  
H190     H      0.230530000000     0.503790000000     0.357130000000     0.0844827  
H191     H      0.326370000000     0.452650000000     0.106150000000     0.0213386  
H192     H      0.104530000000     0.541730000000     0.323200000000     0.0381659  
H193     H      0.356990000000     0.487530000000     0.231260000000     0.0382449  
H194     H      0.267470000000     0.490160000000     0.134130000000     0.0371498  
H195     H      0.414230000000     0.499180000000     0.179590000000     0.0309212  
H196     H      0.177140000000     0.493170000000     0.413930000000    -0.0134415  
H197     H      0.224910000000     0.568060000000     0.267780000000     0.0567621  
H198     H      0.081210000000     0.490800000000     0.324900000000     0.0283395  
H199     H      0.267190000000     0.424710000000     0.225320000000     0.0452896  
H200     H      0.143360000000     0.456980000000     0.299520000000     0.0428527  
H201     H      0.324160000000     0.503200000000     0.081750000000     0.0336174  
H202     H      0.350430000000     0.534600000000     0.200820000000     0.0396131  
H203     H      0.298230000000     0.536240000000     0.144680000000     0.0392627  
H204     H      0.213280000000     0.433940000000     0.279010000000     0.04473    
H205     H      0.198090000000     0.458160000000     0.351120000000     0.057905   
H206     H      0.387390000000     0.450200000000     0.173450000000     0.0219255  
H207     H      0.293520000000     0.445290000000     0.780990000000     0.0440506  
H208     H      0.154610000000     0.501540000000     0.731340000000     0.0455102  
H209     H      0.243250000000     0.500240000000     0.633330000000     0.0846671  
H210     H      0.336450000000     0.556990000000     0.885890000000     0.0528932  
H211     H      0.122270000000     0.462810000000     0.676030000000     0.0877904  
H212     H      0.375360000000     0.508960000000     0.766500000000     0.0399748  
H213     H      0.278460000000     0.520550000000     0.855580000000     0.0437963  
H214     H      0.426870000000     0.496790000000     0.824100000000     0.0375563  
H215     H      0.185810000000     0.513300000000     0.581470000000    -0.0164494  
H216     H      0.240230000000     0.436120000000     0.726910000000     0.0608993  
H217     H      0.097240000000     0.512950000000     0.679780000000     0.0411496  
H218     H      0.288060000000     0.579280000000     0.763970000000     0.0499392  
H219     H      0.161540000000     0.547370000000     0.699090000000     0.0379408  
H220     H      0.329910000000     0.508440000000     0.913370000000     0.0381134  
H221     H      0.362990000000     0.465420000000     0.800240000000     0.0402964  
H222     H      0.307140000000     0.472100000000     0.851470000000     0.0404819  
H223     H      0.234430000000     0.570140000000     0.710200000000     0.0425328  
H224     H      0.212650000000     0.546650000000     0.642830000000     0.0545544  
H225     H      0.405460000000     0.548710000000     0.822430000000     0.0331912  
H226     H      0.730430000000     0.565020000000     0.796650000000     0.0480831  
H227     H      0.874110000000     0.508970000000     0.742230000000     0.0399502  
H228     H      0.778140000000     0.512320000000     0.651550000000     0.0881372  
H229     H      0.682740000000     0.454910000000     0.901740000000     0.0279309  
H230     H      0.903430000000     0.547450000000     0.684840000000     0.0443501  
H231     H      0.650800000000     0.497500000000     0.777940000000     0.0450968  
H232     H      0.741090000000     0.493060000000     0.874190000000     0.037644   
H233     H      0.594550000000     0.509150000000     0.831360000000     0.0558601  
H234     H      0.831000000000     0.500080000000     0.595120000000     0.00575423 
H235     H      0.784430000000     0.574700000000     0.743180000000     0.055633   
H236     H      0.927120000000     0.496580000000     0.685630000000     0.0348578  
H237     H      0.739420000000     0.431050000000     0.781660000000     0.0476208  
H238     H      0.864040000000     0.463460000000     0.710480000000     0.0421966  
H239     H      0.684660000000     0.504680000000     0.927610000000     0.0383798  
H240     H      0.658850000000     0.542480000000     0.810990000000     0.0604522  
H241     H      0.710750000000     0.539930000000     0.866300000000     0.0442909  
H242     H      0.793510000000     0.440710000000     0.728330000000     0.0462671  
H243     H      0.808920000000     0.465560000000     0.657980000000     0.0679611  
H244     H      0.617890000000     0.458140000000     0.832540000000     0.0277644  
H245     H      0.740060000000     0.707570000000     0.060940000000     0.0456401  
H246     H      0.886240000000     0.761870000000     0.004570000000     0.0283163  
H247     H      0.786350000000     0.848460000000     0.000910000000     0.0722269  
H248     H      0.688780000000     0.596820000000     0.958410000000     0.0316863  
H249     H      0.913420000000     0.821270000000     0.041110000000     0.0450022  
H250     H      0.662980000000     0.725390000000     0.989350000000     0.0506085  
H251     H      0.748330000000     0.624270000000     0.995150000000     0.0487919  
H252     H      0.603810000000     0.676110000000     0.003320000000     0.0284026  
H253     H      0.837480000000     0.906940000000     0.988100000000     0.00190737 
H254     H      0.794050000000     0.761560000000     0.068620000000     0.0522215  
H255     H      0.936890000000     0.821520000000     0.990450000000     0.0450697  
H256     H      0.752640000000     0.714120000000     0.927230000000     0.0499663  
H257     H      0.876040000000     0.791560000000     0.957910000000     0.0324926  
H258     H      0.689030000000     0.574520000000     0.009720000000     0.0248692  
H259     H      0.668290000000     0.695920000000     0.037020000000     0.0444985  
H260     H      0.717810000000     0.637540000000     0.040430000000     0.0436379  
H261     H      0.806790000000     0.768050000000     0.934950000000     0.0384395  
H262     H      0.819440000000     0.841520000000     0.956120000000     0.0493027  
H263     H      0.628900000000     0.668360000000     0.954000000000     0.0345445  
H264     H      0.700890000000     0.271750000000     0.953100000000     0.04168    
H265     H      0.842770000000     0.226200000000     0.000820000000     0.0413428  
H266     H      0.758860000000     0.123670000000     0.004670000000     0.0847156  
H267     H      0.666140000000     0.377170000000     0.066860000000     0.0270013  
H268     H      0.876050000000     0.172070000000     0.960870000000     0.039196   
H269     H      0.621700000000     0.260740000000     0.020740000000     0.0386229  
H270     H      0.723060000000     0.345630000000     0.029020000000     0.0375659  
H271     H      0.572410000000     0.320650000000     0.010340000000     0.0228     
H272     H      0.819240000000     0.074300000000     0.014080000000    -0.0221795  
H273     H      0.754270000000     0.218170000000     0.940900000000     0.0544848  
H274     H      0.903000000000     0.177130000000     0.009650000000     0.013055   
H275     H      0.713900000000     0.254450000000     0.085900000000     0.0452508  
H276     H      0.839810000000     0.193850000000     0.046890000000     0.0415973  
H277     H      0.674830000000     0.406070000000     0.019610000000     0.0315079  
H278     H      0.634090000000     0.293430000000     0.976490000000     0.0465166  
H279     H      0.693140000000     0.343070000000     0.981420000000     0.046785   
H280     H      0.767640000000     0.201160000000     0.073680000000     0.0394499  
H281     H      0.791580000000     0.134720000000     0.049030000000     0.0569701  
H282     H      0.596730000000     0.319690000000     0.060760000000     0.0230795  
H283     H      0.237870000000     0.811620000000     0.961380000000     0.0478863  
H284     H      0.385290000000     0.753520000000     0.010780000000     0.0380123  
H285     H      0.284960000000     0.667270000000     0.006320000000     0.0837411  
H286     H      0.189310000000     0.913350000000     0.071910000000     0.0315512  
H287     H      0.410760000000     0.696720000000     0.968730000000     0.0537906  
H288     H      0.163510000000     0.788040000000     0.036100000000     0.044545   
H289     H      0.248850000000     0.889480000000     0.032140000000     0.0414305  
H290     H      0.103910000000     0.837280000000     0.027170000000     0.0447087  
H291     H      0.335230000000     0.607640000000     0.013520000000    -0.0287054  
H292     H      0.291550000000     0.758620000000     0.947900000000     0.0575768  
H293     H      0.435800000000     0.693540000000     0.018650000000     0.0326209  
H294     H      0.254480000000     0.794720000000     0.093810000000     0.0487522  
H295     H      0.375180000000     0.719740000000     0.054730000000     0.0368669  
H296     H      0.190000000000     0.939960000000     0.022570000000     0.0306711  
H297     H      0.167040000000     0.819230000000     0.989270000000     0.0630456  
H298     H      0.217160000000     0.878690000000     0.986900000000     0.0533039  
H299     H      0.308000000000     0.741440000000     0.080290000000     0.0413351  
H300     H      0.317680000000     0.669850000000     0.051920000000     0.0566002  
H301     H      0.132230000000     0.844950000000     0.074840000000     0.0356811  
H302     H      0.265570000000     0.312310000000     0.091510000000     0.0416321  
H303     H      0.122090000000     0.252150000000     0.033060000000     0.0396597  
H304     H      0.220520000000     0.164850000000     0.048440000000     0.0798196  
H305     H      0.318820000000     0.411630000000     0.978540000000     0.0340214  
H306     H      0.093450000000     0.194000000000     0.072220000000     0.0373429  
H307     H      0.346310000000     0.286960000000     0.026860000000     0.0349403  
H308     H      0.260320000000     0.387140000000     0.017790000000     0.0351618  
H309     H      0.404780000000     0.339280000000     0.036170000000     0.0305897  
H310     H      0.171270000000     0.105600000000     0.037190000000    -0.0190149  
H311     H      0.210750000000     0.259520000000     0.102220000000     0.0524542  
H312     H      0.071710000000     0.193220000000     0.020660000000     0.0244073  
H313     H      0.260710000000     0.290130000000     0.959000000000     0.0451229  
H314     H      0.136210000000     0.218800000000     0.989930000000     0.0456864  
H315     H      0.319800000000     0.438760000000     0.027300000000     0.0332033  
H316     H      0.339630000000     0.322900000000     0.069670000000     0.0379125  
H317     H      0.290590000000     0.379940000000     0.064550000000     0.037186   
H318     H      0.206080000000     0.237360000000     0.969650000000     0.0397577  
H319     H      0.193620000000     0.167290000000     0.999170000000     0.0609157  
H320     H      0.382370000000     0.337230000000     0.985070000000     0.0321583  
H321     H      0.743790000000     0.924130000000     0.720610000000     0.0457717  
H322     H      0.781500000000     0.992710000000     0.856440000000     0.0496092  
H323     H      0.878690000000     0.996820000000     0.767290000000     0.0847805  
H324     H      0.621860000000     0.957760000000     0.674550000000     0.0278257  
H325     H      0.834970000000     0.028810000000     0.893130000000     0.0678624  
H326     H      0.745080000000     0.992280000000     0.632710000000     0.0516296  
H327     H      0.656780000000     0.992480000000     0.730900000000     0.0530734  
H328     H      0.687680000000     0.009640000000     0.581430000000     0.0184504  
H329     H      0.930740000000     0.981570000000     0.824940000000    -0.0139562  
H330     H      0.797610000000     0.928860000000     0.774930000000     0.0429847  
H331     H      0.834970000000     0.976260000000     0.912630000000     0.043762   
H332     H      0.737150000000     0.059010000000     0.715580000000     0.0468361  
H333     H      0.813550000000     0.947340000000     0.847080000000     0.0362862  
H334     H      0.599940000000     0.009160000000     0.679680000000     0.0277823  
H335     H      0.716350000000     0.039330000000     0.644540000000     0.0488284  
H336     H      0.665390000000     0.039360000000     0.700730000000     0.0492855  
H337     H      0.790580000000     0.063700000000     0.770200000000     0.0628028  
H338     H      0.869050000000     0.949910000000     0.796920000000     0.0512575  
H339     H      0.685280000000     0.958050000000     0.603410000000     0.0227005  
H340     H      0.245250000000     0.094200000000     0.782000000000     0.045287   
H341     H      0.280850000000     0.005600000000     0.656280000000     0.0402216  
H342     H      0.378080000000     0.011260000000     0.745580000000     0.0795446  
H343     H      0.122760000000     0.071590000000     0.834210000000     0.0287489  
H344     H      0.336980000000     0.965120000000     0.627050000000     0.0417129  
H345     H      0.243280000000     0.036890000000     0.876770000000     0.0400869  
H346     H      0.154480000000     0.031070000000     0.779000000000     0.0392744  
H347     H      0.186680000000     0.027600000000     0.929600000000     0.0295613  
H348     H      0.430570000000     0.019070000000     0.687930000000    -0.0111804  
H349     H      0.299570000000     0.080770000000     0.729710000000     0.042746   
H350     H      0.332660000000     0.013240000000     0.598550000000     0.0227795  
H351     H      0.231940000000     0.961200000000     0.801880000000     0.0444371  
H352     H      0.312540000000     0.052140000000     0.660080000000     0.0437287  
H353     H      0.097090000000     0.021770000000     0.830820000000     0.037155   
H354     H      0.213350000000     0.989550000000     0.869660000000     0.0530656  
H355     H      0.161380000000     0.986160000000     0.812480000000     0.0527556  
H356     H      0.286080000000     0.947790000000     0.749500000000     0.0554729  
H357     H      0.368880000000     0.055290000000     0.711620000000     0.0557448  
H358     H      0.182980000000     0.075560000000     0.900550000000     0.0246736  
H359     H      0.211870000000     0.103570000000     0.235190000000     0.0450944  
H360     H      0.262590000000     0.044050000000     0.380180000000     0.0417294  
H361     H      0.351660000000     0.040770000000     0.282630000000     0.0876405  
H362     H      0.100060000000     0.999280000000     0.187830000000     0.0604212  
H363     H      0.323850000000     0.077200000000     0.408510000000     0.0422841  
H364     H      0.228090000000     0.036460000000     0.156410000000     0.0408746  
H365     H      0.129650000000     0.037460000000     0.244200000000     0.0399798  
H366     H      0.175360000000     0.050030000000     0.098680000000     0.0562867  
H367     H      0.407710000000     0.023780000000     0.334150000000    -0.0101655  
H368     H      0.265330000000     0.109460000000     0.289830000000     0.0571187  
H369     H      0.318670000000     0.026570000000     0.432250000000     0.027214   
H370     H      0.217030000000     0.968910000000     0.244600000000     0.0484701  
H371     H      0.290100000000     0.996010000000     0.369310000000     0.0516208  
H372     H      0.078570000000     0.050890000000     0.184800000000     0.0362161  
H373     H      0.196060000000     0.082340000000     0.163010000000     0.0637281  
H374     H      0.140380000000     0.082900000000     0.212650000000     0.0452917  
H375     H      0.270150000000     0.974730000000     0.299350000000     0.0617267  
H376     H      0.342040000000     0.994280000000     0.313040000000     0.0777242  
H377     H      0.175230000000     0.998650000000     0.120800000000     0.0391293  
H378     H      0.771340000000     0.067170000000     0.205930000000     0.0457966  
H379     H      0.629110000000     0.006980000000     0.265930000000     0.0438723  
H380     H      0.724920000000     0.031080000000     0.353740000000     0.0804624  
H381     H      0.824830000000     0.952860000000     0.110350000000     0.0557292  
H382     H      0.597580000000     0.051000000000     0.318010000000     0.0832843  
H383     H      0.853400000000     0.001340000000     0.231890000000     0.0387484  
H384     H      0.764680000000     0.990840000000     0.134570000000     0.0557936  
H385     H      0.910390000000     0.011020000000     0.179200000000     0.0170467  
H386     H      0.673720000000     0.026920000000     0.412090000000    -0.0194874  
H387     H      0.716220000000     0.079520000000     0.257580000000     0.0580729  
H388     H      0.577360000000     0.999050000000     0.324620000000     0.0420349  
H389     H      0.767970000000     0.934980000000     0.233700000000     0.0512434  
H390     H      0.642740000000     0.967370000000     0.303650000000     0.0441037  
H391     H      0.821400000000     0.000840000000     0.081450000000     0.0372467  
H392     H      0.845140000000     0.044830000000     0.196950000000     0.0421895  
H393     H      0.793810000000     0.038760000000     0.140590000000     0.0435109  
H394     H      0.713250000000     0.947490000000     0.285890000000     0.0380484  
H395     H      0.697500000000     0.981780000000     0.355160000000     0.0614933  
H396     H      0.886950000000     0.959990000000     0.178760000000     0.0248123  
H397     H      0.947240000000     0.234400000000     0.764910000000     0.0509466  
H398     H      0.036240000000     0.273250000000     0.638050000000     0.041088   
H399     H      0.033520000000     0.365070000000     0.733730000000     0.0814044  
H400     H      0.968060000000     0.113830000000     0.822670000000     0.0660172  
H401     H      0.075940000000     0.332300000000     0.612470000000     0.0491937  
H402     H      0.001830000000     0.238570000000     0.859450000000     0.0391858  
H403     H      0.011560000000     0.142500000000     0.768680000000     0.0418146  
H404     H      0.008520000000     0.185090000000     0.916510000000     0.0312809  
H405     H      0.027230000000     0.421770000000     0.680910000000    -0.0117128  
H406     H      0.961770000000     0.287830000000     0.711820000000     0.0444822  
H407     H      0.027950000000     0.329090000000     0.583890000000     0.0286751  
H408     H      0.079040000000     0.220950000000     0.787590000000     0.0426     
H409     H      0.989980000000     0.304730000000     0.644670000000     0.0411226  
H410     H      0.018050000000     0.088770000000     0.825290000000     0.0480343  
H411     H      0.048560000000     0.207280000000     0.856590000000     0.0390796  
H412     H      0.054130000000     0.151670000000     0.804280000000     0.0377903  
H413     H      0.093600000000     0.274100000000     0.734190000000     0.0567118  
H414     H      0.988710000000     0.359010000000     0.700290000000     0.0560393  
H415     H      0.961330000000     0.181380000000     0.886710000000     0.0364891  
H416     H      0.930770000000     0.733310000000     0.744390000000     0.0467658  
H417     H      0.016480000000     0.864690000000     0.776840000000     0.040467   
H418     H      0.017650000000     0.772240000000     0.871710000000     0.0829533  
H419     H      0.945960000000     0.678270000000     0.622240000000     0.0372854  
H420     H      0.058470000000     0.893830000000     0.831910000000     0.0503215  
H421     H      0.995020000000     0.641440000000     0.740190000000     0.0378501  
H422     H      0.984870000000     0.737220000000     0.649140000000     0.0379866  
H423     H      0.002860000000     0.587580000000     0.684040000000     0.0410422  
H424     H      0.009920000000     0.828570000000     0.926080000000    -0.00906083 
H425     H      0.944900000000     0.786710000000     0.797740000000     0.0411115  
H426     H      0.009590000000     0.921040000000     0.830780000000     0.0390405  
H427     H      0.062640000000     0.720920000000     0.721710000000     0.0426102  
H428     H      0.971840000000     0.858600000000     0.810460000000     0.0368529  
H429     H      0.992770000000     0.684110000000     0.592190000000     0.0382648  
H430     H      0.038220000000     0.651240000000     0.705560000000     0.0396075  
H431     H      0.032320000000     0.707140000000     0.652550000000     0.0400237  
H432     H      0.076770000000     0.773970000000     0.775340000000     0.055687   
H433     H      0.972590000000     0.805250000000     0.865290000000     0.0522985  
H434     H      0.952910000000     0.612760000000     0.684680000000     0.0385148  
H435     H      0.930370000000     0.746510000000     0.274100000000     0.0498662  
H436     H      0.028180000000     0.778480000000     0.151650000000     0.0411344  
H437     H      0.017960000000     0.875450000000     0.241670000000     0.0837874  
H438     H      0.943230000000     0.627190000000     0.332520000000     0.0554932  
H439     H      0.068890000000     0.836960000000     0.126240000000     0.0462307  
H440     H      0.985830000000     0.746310000000     0.371510000000     0.0460565  
H441     H      0.986460000000     0.653650000000     0.276590000000     0.0430581  
H442     H      0.990460000000     0.690840000000     0.426170000000     0.0523385  
H443     H      0.012450000000     0.928730000000     0.185070000000    -0.0183131  
H444     H      0.948130000000     0.798900000000     0.221070000000     0.0436229  
H445     H      0.023460000000     0.830720000000     0.094110000000     0.0331362  
H446     H      0.061040000000     0.728370000000     0.300070000000     0.0527287  
H447     H      0.981160000000     0.809530000000     0.153330000000     0.040049   
H448     H      0.990520000000     0.597180000000     0.330010000000     0.0427049  
H449     H      0.030840000000     0.712780000000     0.366150000000     0.067387   
H450     H      0.031160000000     0.658380000000     0.310480000000     0.0491079  
H451     H      0.078790000000     0.781210000000     0.247420000000     0.0578352  
H452     H      0.975240000000     0.866600000000     0.206170000000     0.055024   
H453     H      0.943110000000     0.689110000000     0.396370000000     0.0333733  
H454     H      0.076940000000     0.233470000000     0.212000000000     0.0459384  
H455     H      0.022540000000     0.378890000000     0.268560000000     0.0391318  
H456     H      0.037140000000     0.283130000000     0.359110000000     0.078588   
H457     H      0.962830000000     0.187490000000     0.112390000000     0.0218355  
H458     H      0.064720000000     0.409020000000     0.323230000000     0.0377112  
H459     H      0.008490000000     0.153500000000     0.234380000000     0.0380419  
H460     H      0.003360000000     0.244940000000     0.138740000000     0.0369477  
H461     H      0.016170000000     0.096840000000     0.180310000000     0.0327675  
H462     H      0.033440000000     0.335600000000     0.416300000000    -0.0185837  
H463     H      0.089780000000     0.288400000000     0.264110000000     0.055105   
H464     H      0.013920000000     0.432330000000     0.325410000000     0.0280571  
H465     H      0.944920000000     0.242450000000     0.235320000000     0.0441381  
H466     H      0.980280000000     0.367710000000     0.303930000000     0.0361107  
H467     H      0.011320000000     0.188280000000     0.084710000000     0.0337378  
H468     H      0.052240000000     0.160500000000     0.199810000000     0.0442243  
H469     H      0.049290000000     0.213010000000     0.144840000000     0.0441093  
H470     H      0.957840000000     0.297030000000     0.287840000000     0.0397974  
H471     H      0.989360000000     0.312890000000     0.357650000000     0.0512496  
H472     H      0.966360000000     0.122150000000     0.180880000000     0.0219662  
N1       N      0.523430000000     0.136450000000     0.380980000000    -0.255489   
N2       N      0.522110000000     0.199200000000     0.318040000000    -0.0840046  
N3       N      0.474080000000     0.320720000000     0.195430000000    -0.110338   
N4       N      0.473570000000     0.383160000000     0.132140000000    -0.234632   
N5       N      0.480230000000     0.883620000000     0.378200000000    -0.251504   
N6       N      0.474410000000     0.822630000000     0.315140000000    -0.0862131  
N7       N      0.511300000000     0.698810000000     0.193090000000    -0.110866   
N8       N      0.508990000000     0.636230000000     0.131570000000    -0.218232   
N9       N      0.525790000000     0.630360000000     0.878730000000    -0.223977   
N10      N      0.530020000000     0.692330000000     0.814980000000    -0.0869741  
N11      N      0.492770000000     0.817840000000     0.692510000000    -0.109846   
N12      N      0.495210000000     0.881440000000     0.630380000000    -0.194327   
N13      N      0.536970000000     0.132810000000     0.633840000000    -0.242362   
N14      N      0.538950000000     0.194490000000     0.696650000000    -0.0858013  
N15      N      0.489270000000     0.316080000000     0.816700000000    -0.110558   
N16      N      0.488790000000     0.379040000000     0.878250000000    -0.225784   
N17      N      0.885000000000     0.372460000000     0.501720000000    -0.251302   
N18      N      0.826380000000     0.306860000000     0.505290000000    -0.0855224  
N19      N      0.703220000000     0.182300000000     0.473330000000    -0.106481   
N20      N      0.637410000000     0.124090000000     0.478850000000    -0.222934   
N21      N      0.868800000000     0.624890000000     0.512910000000    -0.228905   
N22      N      0.802570000000     0.680890000000     0.500310000000    -0.0864181  
N23      N      0.675370000000     0.805210000000     0.503640000000    -0.109663   
N24      N      0.618510000000     0.870700000000     0.490880000000    -0.224085   
N25      N      0.386370000000     0.147570000000     0.510860000000    -0.248865   
N26      N      0.329200000000     0.214760000000     0.513090000000    -0.0856389  
N27      N      0.204650000000     0.336350000000     0.476020000000    -0.107785   
N28      N      0.137770000000     0.393610000000     0.478880000000    -0.224687   
N29      N      0.119880000000     0.647190000000     0.489270000000    -0.247888   
N30      N      0.177720000000     0.714060000000     0.485980000000    -0.0855753  
N31      N      0.301760000000     0.835950000000     0.525580000000    -0.110441   
N32      N      0.368300000000     0.894050000000     0.521700000000    -0.204151   
N33      N      0.870530000000     0.501840000000     0.383950000000    -0.249358   
N34      N      0.806380000000     0.503750000000     0.324500000000    -0.0852904  
N35      N      0.684320000000     0.469780000000     0.200460000000    -0.110788   
N36      N      0.625380000000     0.478500000000     0.136070000000    -0.226767   
N37      N      0.124740000000     0.504600000000     0.373940000000    -0.261361   
N38      N      0.184470000000     0.508820000000     0.309610000000    -0.0850833  
N39      N      0.309370000000     0.484090000000     0.185180000000    -0.110432   
N40      N      0.374040000000     0.493830000000     0.125900000000    -0.234691   
N41      N      0.136740000000     0.503580000000     0.626200000000    -0.241809   
N42      N      0.201240000000     0.495500000000     0.684480000000    -0.0844671  
N43      N      0.325080000000     0.520040000000     0.808380000000    -0.109046   
N44      N      0.383350000000     0.512320000000     0.872930000000    -0.223201   
N45      N      0.883880000000     0.508030000000     0.635580000000    -0.225499   
N46      N      0.823740000000     0.515790000000     0.699630000000    -0.0867863  
N47      N      0.698440000000     0.489970000000     0.823500000000    -0.110522   
N48      N      0.634520000000     0.496350000000     0.883790000000    -0.203517   
N49      N      0.891470000000     0.869600000000     0.001680000000    -0.228068   
N50      N      0.833980000000     0.802670000000     0.008500000000    -0.0969701  
N51      N      0.708660000000     0.677070000000     0.987290000000    -0.100834   
N52      N      0.641320000000     0.620340000000     0.997720000000    -0.197421   
N53      N      0.865620000000     0.121490000000     0.002180000000    -0.263432   
N54      N      0.798060000000     0.176990000000     0.997610000000    -0.0709433  
N55      N      0.674530000000     0.300130000000     0.029220000000    -0.107703   
N56      N      0.619230000000     0.367920000000     0.021520000000    -0.228409   
N57      N      0.389680000000     0.646230000000     0.005890000000    -0.24785    
N58      N      0.332910000000     0.713310000000     0.003470000000    -0.0857132  
N59      N      0.209330000000     0.836270000000     0.038080000000    -0.105898   
N60      N      0.142320000000     0.892830000000     0.030440000000    -0.222113   
N61      N      0.116520000000     0.144790000000     0.034560000000    -0.260125   
N62      N      0.173710000000     0.211990000000     0.044770000000    -0.0832495  
N63      N      0.300840000000     0.334420000000     0.016620000000    -0.111026   
N64      N      0.367460000000     0.392300000000     0.018640000000    -0.233145   
N65      N      0.887130000000     0.993040000000     0.874200000000    -0.224339   
N66      N      0.828030000000     0.001100000000     0.809890000000    -0.0989296  
N67      N      0.703290000000     0.986800000000     0.683930000000    -0.0981638  
N68      N      0.638480000000     0.998980000000     0.625640000000    -0.213146   
N69      N      0.386220000000     0.007500000000     0.638970000000    -0.233475   
N70      N      0.327040000000     0.003660000000     0.703890000000    -0.0862644  
N71      N      0.201730000000     0.038100000000     0.825050000000    -0.107325   
N72      N      0.137040000000     0.030960000000     0.884290000000    -0.216811   
N73      N      0.368680000000     0.033230000000     0.387970000000    -0.249071   
N74      N      0.304660000000     0.047470000000     0.329010000000    -0.0853013  
N75      N      0.180760000000     0.030540000000     0.202540000000    -0.105936   
N76      N      0.122710000000     0.035180000000     0.137180000000    -0.223855   
N77      N      0.620290000000     0.020160000000     0.371820000000    -0.256143   
N78      N      0.679070000000     0.023570000000     0.306330000000    -0.0783361  
N79      N      0.806410000000     0.991330000000     0.186120000000    -0.100048   
N80      N      0.871150000000     0.997100000000     0.126470000000    -0.217087   
N81      N      0.032860000000     0.379910000000     0.628230000000    -0.242594   
N82      N      0.038850000000     0.316330000000     0.688670000000    -0.0850239  
N83      N      0.001900000000     0.192850000000     0.811100000000    -0.109256   
N84      N      0.004030000000     0.132380000000     0.874750000000    -0.211898   
N85      N      0.019140000000     0.879280000000     0.882830000000    -0.225848   
N86      N      0.021850000000     0.815650000000     0.821500000000    -0.0876105  
N87      N      0.985740000000     0.691970000000     0.697870000000    -0.111087   
N88      N      0.990710000000     0.631050000000     0.633850000000    -0.199144   
N89      N      0.023530000000     0.884100000000     0.135640000000    -0.252661   
N90      N      0.026740000000     0.824400000000     0.199810000000    -0.0855783  
N91      N      0.982390000000     0.702860000000     0.321230000000    -0.108419   
N92      N      0.984790000000     0.639830000000     0.382120000000    -0.219913   
N93      N      0.028950000000     0.388820000000     0.374900000000    -0.26379    
N94      N      0.034010000000     0.328530000000     0.310540000000    -0.0851308  
N95      N      0.000780000000     0.201840000000     0.189310000000    -0.109898   
N96      N      0.003330000000     0.137810000000     0.128580000000    -0.234077   
O1       O      0.001820000000     0.117820000000     0.058910000000    -1.05517    
O2       O      0.017710000000     0.898950000000     0.064940000000    -0.800547   
O3       O      0.942060000000     0.003770000000     0.111300000000    -1.01732    
O4       O      0.054410000000     0.024570000000     0.115400000000    -1.06771    
O5       O      0.108990000000     0.027800000000     0.066380000000    -1.02476    
O6       O      0.892310000000     0.999980000000     0.056950000000    -0.750606   
O7       O      0.009110000000     0.952540000000     0.115290000000    -1.01575    
O8       O      0.003530000000     0.066810000000     0.111900000000    -1.07537    
O9       O      0.051490000000     0.973050000000     0.053280000000    -2.08389    
O10      O      0.958730000000     0.049890000000     0.047430000000    -2.08992    
O11      O      0.962570000000     0.958880000000     0.051850000000    -0.863598   
O12      O      0.012930000000     0.017610000000     0.014400000000    -2.56963    
O13      O      0.015550000000     0.898800000000     0.953010000000    -0.713894   
O14      O      0.002140000000     0.115670000000     0.945570000000    -0.932233   
O15      O      0.903240000000     0.941730000000     0.000920000000    -0.719258   
O16      O      0.118640000000     0.960750000000     0.017940000000    -0.937826   
O17      O      0.106110000000     0.073690000000     0.022380000000    -1.03797    
O18      O      0.890770000000     0.053280000000     0.005280000000    -0.760461   
O19      O      0.956350000000     0.999980000000     0.895320000000    -0.563653   
O20      O      0.067330000000     0.016720000000     0.898710000000    -0.627799   
O21      O      0.901780000000     0.994240000000     0.945540000000    -0.686087   
O22      O      0.116100000000     0.023100000000     0.953560000000    -0.931801   
O23      O      0.960330000000     0.893870000000     0.004860000000    -0.745519   
O24      O      0.937390000000     0.110630000000     0.003910000000    -0.956434   
O25      O      0.049930000000     0.120980000000     0.017470000000    -1.04429    
O26      O      0.071570000000     0.903800000000     0.018670000000    -0.769795   
O27      O      0.015680000000     0.950430000000     0.899270000000    -0.587486   
O28      O      0.008760000000     0.062520000000     0.894600000000    -0.620307   
O29      O      0.047600000000     0.056070000000     0.967230000000    -1.97868    
O30      O      0.973180000000     0.965260000000     0.966170000000    -1.59383    
O31      O      0.958240000000     0.045730000000     0.957390000000    -1.22285    
O32      O      0.055560000000     0.965150000000     0.963650000000    -1.2505     
O33      O      0.020570000000     0.403260000000     0.445770000000    -1.0452     
O34      O      0.994130000000     0.621030000000     0.451470000000    -0.788995   
O35      O      0.941300000000     0.506140000000     0.399340000000    -1.02098    
O36      O      0.055340000000     0.506890000000     0.395040000000    -1.07766    
O37      O      0.109370000000     0.508020000000     0.444660000000    -1.05233    
O38      O      0.891510000000     0.499110000000     0.453350000000    -0.7942     
O39      O      0.993450000000     0.569340000000     0.398530000000    -1.01992    
O40      O      0.013020000000     0.456620000000     0.395710000000    -1.09435    
O41      O      0.043620000000     0.553770000000     0.459050000000    -2.11233    
O42      O      0.965180000000     0.461310000000     0.460660000000    -2.11443    
O43      O      0.953420000000     0.551500000000     0.461160000000    -0.870345   
O44      O      0.012870000000     0.500870000000     0.495900000000    -2.59541    
O45      O      0.994550000000     0.615030000000     0.562860000000    -0.716898   
O46      O      0.020700000000     0.399060000000     0.559160000000    -0.936784   
O47      O      0.892110000000     0.555720000000     0.511660000000    -0.72149    
O48      O      0.107530000000     0.575410000000     0.496020000000    -0.953876   
O49      O      0.114780000000     0.462040000000     0.488620000000    -1.04349    
O50      O      0.898730000000     0.443990000000     0.502780000000    -0.779288   
O51      O      0.953690000000     0.503980000000     0.615200000000    -0.59879    
O52      O      0.065830000000     0.506760000000     0.612020000000    -0.641851   
O53      O      0.899280000000     0.504000000000     0.564570000000    -0.710083   
O54      O      0.115030000000     0.510610000000     0.557280000000    -0.946813   
O55      O      0.940440000000     0.612710000000     0.510760000000    -0.737209   
O56      O      0.954230000000     0.395330000000     0.501070000000    -0.951198   
O57      O      0.067220000000     0.405740000000     0.490240000000    -1.03714    
O58      O      0.051610000000     0.623490000000     0.498070000000    -0.765522   
O59      O      0.002840000000     0.561670000000     0.614230000000    -0.595636   
O60      O      0.018610000000     0.449760000000     0.612890000000    -0.6323     
O61      O      0.053240000000     0.467100000000     0.541290000000    -2.00236    
O62      O      0.965050000000     0.543090000000     0.545940000000    -1.63066    
O63      O      0.963740000000     0.460660000000     0.551320000000    -1.26373    
O64      O      0.045880000000     0.557400000000     0.549560000000    -1.26449    
O65      O      0.607220000000     0.012950000000     0.442950000000    -1.03667    
O66      O      0.390040000000     0.024340000000     0.457010000000    -0.783393   
O67      O      0.489290000000     0.953470000000     0.397330000000    -1.00053    
O68      O      0.511150000000     0.066670000000     0.398970000000    -1.04679    
O69      O      0.517810000000     0.118100000000     0.451150000000    -1.04626    
O70      O      0.491010000000     0.899650000000     0.448120000000    -0.811468   
O71      O      0.438770000000     0.019890000000     0.401790000000    -0.99451    
O72      O      0.551940000000     0.013940000000     0.394700000000    -1.06435    
O73      O      0.464380000000     0.059060000000     0.464740000000    -2.09079    
O74      O      0.541660000000     0.966020000000     0.457500000000    -2.07049    
O75      O      0.451170000000     0.969060000000     0.461520000000    -0.859744   
O76      O      0.512310000000     0.017740000000     0.497000000000    -2.57085    
O77      O      0.400110000000     0.013070000000     0.567890000000    -0.718459   
O78      O      0.615760000000     0.002430000000     0.556360000000    -0.910459   
O79      O      0.439240000000     0.906040000000     0.511310000000    -0.745753   
O80      O      0.455050000000     0.123530000000     0.508040000000    -0.945785   
O81      O      0.567060000000     0.112250000000     0.491620000000    -1.05438    
O82      O      0.549910000000     0.894760000000     0.494590000000    -0.779744   
O83      O      0.504770000000     0.952030000000     0.613100000000    -0.572936   
O84      O      0.521430000000     0.063880000000     0.615940000000    -0.636201   
O85      O      0.495250000000     0.900730000000     0.559860000000    -0.714596   
O86      O      0.523350000000     0.116660000000     0.564230000000    -0.941369   
O87      O      0.391270000000     0.963180000000     0.514460000000    -0.722164   
O88      O      0.606220000000     0.942570000000     0.493340000000    -0.944627   
O89      O      0.614620000000     0.055970000000     0.490090000000    -1.03326    
O90      O      0.398870000000     0.075640000000     0.509330000000    -0.769026   
O91      O      0.455620000000     0.010840000000     0.617280000000    -0.58523    
O92      O      0.567520000000     0.005040000000     0.612060000000    -0.630684   
O93      O      0.554230000000     0.049370000000     0.543050000000    -1.98981    
O94      O      0.465200000000     0.974040000000     0.546430000000    -1.60592    
O95      O      0.545630000000     0.958950000000     0.547500000000    -1.2524     
O96      O      0.464800000000     0.056110000000     0.555120000000    -1.24       
O97      O      0.391610000000     0.460860000000     0.011550000000    -1.03301    
O98      O      0.608890000000     0.439620000000     0.014120000000    -0.792381   
O99      O      0.494550000000     0.397540000000     0.948360000000    -1.01878    
O100     O      0.484260000000     0.400250000000     0.062210000000    -1.05842    
O101     O      0.486560000000     0.452680000000     0.113790000000    -1.05001    
O102     O      0.498820000000     0.449110000000     0.895500000000    -0.805621   
O103     O      0.551890000000     0.392660000000     0.010600000000    -1.02468    
O104     O      0.438790000000     0.404440000000     0.014320000000    -1.07705    
O105     O      0.538720000000     0.458560000000     0.052080000000    -2.10971    
O106     O      0.456930000000     0.465530000000     0.964170000000    -2.09364    
O107     O      0.546750000000     0.454340000000     0.962260000000    -0.869197   
O108     O      0.494780000000     0.498830000000     0.014230000000    -2.58071    
O109     O      0.616940000000     0.551540000000     0.004770000000    -0.710714   
O110     O      0.401750000000     0.574220000000     0.006000000000    -0.929982   
O111     O      0.563620000000     0.501060000000     0.899390000000    -0.748156   
O112     O      0.557550000000     0.495040000000     0.116110000000    -0.967367   
O113     O      0.444700000000     0.501200000000     0.111110000000    -1.06651    
O114     O      0.452160000000     0.505280000000     0.894020000000    -0.791516   
O115     O      0.517100000000     0.613900000000     0.949380000000    -0.56904    
O116     O      0.510050000000     0.617460000000     0.061530000000    -0.629629   
O117     O      0.516410000000     0.560170000000     0.897710000000    -0.712843   
O118     O      0.503450000000     0.565610000000     0.113810000000    -0.959339   
O119     O      0.614290000000     0.496760000000     0.953760000000    -0.735805   
O120     O      0.398490000000     0.512510000000     0.944000000000    -0.935942   
O121     O      0.394810000000     0.504950000000     0.057310000000    -1.04985    
O122     O      0.611020000000     0.489340000000     0.065740000000    -0.770553   
O123     O      0.569690000000     0.609230000000     0.004220000000    -0.579899   
O124     O      0.458120000000     0.621940000000     0.006910000000    -0.625202   
O125     O      0.462490000000     0.550910000000     0.048550000000    -1.99262    
O126     O      0.547220000000     0.541110000000     0.968620000000    -1.60595    
O127     O      0.467280000000     0.555360000000     0.958120000000    -1.24194    
O128     O      0.553240000000     0.547910000000     0.050320000000    -1.23186    
Tb1      Tb     0.001030000000     0.008370000000     0.076090000000     6.4088     
Tb2      Tb     0.013190000000     0.937880000000     0.009720000000     4.40391    
Tb3      Tb     0.998020000000     0.078510000000     0.003400000000     6.28072    
Tb4      Tb     0.935740000000     0.002110000000     0.004840000000     4.23616    
Tb5      Tb     0.075930000000     0.013850000000     0.008520000000     6.16486    
Tb6      Tb     0.010940000000     0.008470000000     0.935840000000     3.15364    
Tb7      Tb     0.999820000000     0.511130000000     0.434620000000     6.47773    
Tb8      Tb     0.999830000000     0.579140000000     0.504310000000     4.34886    
Tb9      Tb     0.008510000000     0.437770000000     0.503710000000     6.2474     
Tb10     Tb     0.934410000000     0.502070000000     0.505620000000     4.43937    
Tb11     Tb     0.074260000000     0.515360000000     0.502430000000     6.3696     
Tb12     Tb     0.009160000000     0.505650000000     0.574860000000     3.24744    
Tb13     Tb     0.497640000000     0.010090000000     0.435660000000     6.31398    
Tb14     Tb     0.433880000000     0.016870000000     0.508430000000     4.27836    
Tb15     Tb     0.573700000000     0.002580000000     0.501620000000     6.15874    
Tb16     Tb     0.498460000000     0.939290000000     0.502560000000     4.41652    
Tb17     Tb     0.508810000000     0.080490000000     0.507610000000     6.36111    
Tb18     Tb     0.510280000000     0.009830000000     0.575850000000     3.19032    
Tb19     Tb     0.498780000000     0.435800000000     0.005350000000     6.37404    
Tb20     Tb     0.573970000000     0.497570000000     0.009150000000     4.31829    
Tb21     Tb     0.434330000000     0.513650000000     0.002490000000     6.22658    
Tb22     Tb     0.505600000000     0.503410000000     0.935700000000     4.44514    
Tb23     Tb     0.503140000000     0.507730000000     0.076450000000     6.39747    
Tb24     Tb     0.509250000000     0.576860000000     0.007000000000     3.0939     


