data_structure

_audit_creation_method RASPA-1.0
_audit_creation_date 2023-5-25
_audit_author_name 'Poobodin Mano'

_cell_length_a    32.1293
_cell_length_b    32.1542
_cell_length_c    32.1102
_cell_angle_alpha 90
_cell_angle_beta  90
_cell_angle_gamma 90
_cell_volume      33172.8

_symmetry_cell_setting          triclinic
_symmetry_space_group_name_Hall 'P 1'
_symmetry_space_group_name_H-M  'P 1'
_symmetry_Int_Tables_number     1

_symmetry_equiv_pos_as_xyz 'x,y,z'

loop_
_atom_site_label
_atom_site_type_symbol
_atom_site_fract_x
_atom_site_fract_y
_atom_site_fract_z
_atom_site_charge
C1       C      0.018580000000     0.102320000000     0.099460000000     0.721456   
C2       C      0.012320000000     0.908660000000     0.102550000000     0.672494   
C3       C      0.909650000000     0.011350000000     0.104210000000     0.6703     
C4       C      0.102720000000     0.019800000000     0.098500000000     0.716318   
C5       C      0.001360000000     0.909370000000     0.911190000000     0.556086   
C6       C      0.006690000000     0.100880000000     0.906520000000     0.644433   
C7       C      0.909380000000     0.910340000000     0.008390000000     0.577608   
C8       C      0.101620000000     0.907960000000     0.013880000000     0.676254   
C9       C      0.101050000000     0.100720000000     0.013780000000     0.711401   
C10      C      0.907870000000     0.102320000000     0.014820000000     0.677862   
C11      C      0.908390000000     0.998290000000     0.912780000000     0.581941   
C12      C      0.100090000000     0.011670000000     0.905620000000     0.63603    
C13      C      0.019190000000     0.410260000000     0.410080000000     0.71606    
C14      C      0.007680000000     0.603910000000     0.410570000000     0.66586    
C15      C      0.910610000000     0.502380000000     0.409890000000     0.668112   
C16      C      0.105430000000     0.494260000000     0.412290000000     0.724208   
C17      C      0.002600000000     0.600170000000     0.602110000000     0.552725   
C18      C      0.019780000000     0.408370000000     0.602850000000     0.645859   
C19      C      0.912060000000     0.599830000000     0.508540000000     0.583258   
C20      C      0.103730000000     0.604440000000     0.497390000000     0.687862   
C21      C      0.105210000000     0.411840000000     0.495200000000     0.720774   
C22      C      0.911790000000     0.407700000000     0.501790000000     0.676293   
C23      C      0.913050000000     0.506610000000     0.601120000000     0.562843   
C24      C      0.105290000000     0.503520000000     0.604930000000     0.641669   
C25      C      0.604800000000     0.014220000000     0.414120000000     0.722064   
C26      C      0.410650000000     0.007860000000     0.407640000000     0.655554   
C27      C      0.511420000000     0.907270000000     0.410230000000     0.663497   
C28      C      0.523160000000     0.100730000000     0.411800000000     0.726524   
C29      C      0.409000000000     0.002030000000     0.599050000000     0.556106   
C30      C      0.600690000000     0.013750000000     0.607030000000     0.635027   
C31      C      0.410610000000     0.911270000000     0.509980000000     0.586596   
C32      C      0.411100000000     0.103670000000     0.493100000000     0.688116   
C33      C      0.603050000000     0.100080000000     0.493940000000     0.703558   
C34      C      0.602780000000     0.907500000000     0.505110000000     0.674347   
C35      C      0.502480000000     0.911310000000     0.602360000000     0.567247   
C36      C      0.506150000000     0.102960000000     0.604730000000     0.640611   
C37      C      0.411310000000     0.406240000000     0.998690000000     0.642978   
C38      C      0.408360000000     0.600270000000     0.020170000000     0.626854   
C39      C      0.409700000000     0.521840000000     0.103910000000     0.623775   
C40      C      0.411870000000     0.484520000000     0.910790000000     0.633367   
C41      C      0.600550000000     0.601830000000     0.008010000000     0.556853   
C42      C      0.602600000000     0.411320000000     0.000150000000     0.55399    
C43      C      0.491270000000     0.599800000000     0.101780000000     0.576335   
C44      C      0.494820000000     0.602080000000     0.909170000000     0.619945   
C45      C      0.495050000000     0.410600000000     0.914150000000     0.590297   
C46      C      0.498200000000     0.407320000000     0.105850000000     0.620329   
C47      C      0.602210000000     0.505260000000     0.102790000000     0.571795   
C48      C      0.602040000000     0.502210000000     0.912720000000     0.564406   
C49      C      0.513940000000     0.202760000000     0.360530000000    -0.0480221  
C50      C      0.505700000000     0.303630000000     0.155710000000    -0.0408249  
C51      C      0.486450000000     0.388980000000     0.179660000000     0.0212338  
C52      C      0.487230000000     0.333410000000     0.123520000000     0.021287   
C53      C      0.469720000000     0.260700000000     0.247040000000    -0.055474   
C54      C      0.552520000000     0.245110000000     0.268850000000    -0.0550823  
C55      C      0.501620000000     0.283580000000     0.228060000000     0.0600731  
C56      C      0.504680000000     0.356640000000     0.209510000000    -0.040932   
C57      C      0.520610000000     0.222540000000     0.288140000000     0.0592803  
C58      C      0.521080000000     0.149510000000     0.307430000000    -0.0697337  
C59      C      0.479000000000     0.230320000000     0.276790000000    -0.0567415  
C60      C      0.540360000000     0.118520000000     0.338550000000     0.109671   
C61      C      0.533400000000     0.174870000000     0.393730000000     0.0369711  
C62      C      0.543270000000     0.275310000000     0.238960000000    -0.0573154  
C63      C      0.587760000000     0.116180000000     0.333070000000    -0.186271   
C64      C      0.498440000000     0.856200000000     0.306930000000    -0.0471855  
C65      C      0.500380000000     0.651910000000     0.204420000000    -0.0407046  
C66      C      0.475350000000     0.673080000000     0.119770000000     0.0168737  
C67      C      0.482420000000     0.618170000000     0.176100000000     0.0198535  
C68      C      0.458820000000     0.740900000000     0.247940000000    -0.0553897  
C69      C      0.540400000000     0.767580000000     0.262210000000    -0.0547818  
C70      C      0.491360000000     0.723920000000     0.224330000000     0.0599517  
C71      C      0.492830000000     0.704660000000     0.151060000000    -0.0396902  
C72      C      0.507870000000     0.784540000000     0.285830000000     0.0587037  
C73      C      0.506920000000     0.802750000000     0.359340000000    -0.0676573  
C74      C      0.466860000000     0.770950000000     0.278430000000    -0.0563704  
C75      C      0.524870000000     0.833820000000     0.391250000000     0.102583   
C76      C      0.516410000000     0.889770000000     0.335490000000     0.032673   
C77      C      0.532370000000     0.737510000000     0.231740000000    -0.0573831  
C78      C      0.572280000000     0.828850000000     0.395070000000    -0.18429    
C79      C      0.489280000000     0.807530000000     0.653610000000    -0.0426037  
C80      C      0.497170000000     0.706010000000     0.858420000000    -0.0409033  
C81      C      0.479890000000     0.619850000000     0.835880000000     0.0221077  
C82      C      0.482080000000     0.675720000000     0.891870000000     0.0211024  
C83      C      0.453250000000     0.746240000000     0.768890000000    -0.0551036  
C84      C      0.533790000000     0.766800000000     0.743110000000    -0.0544002  
C85      C      0.487380000000     0.725510000000     0.786430000000     0.0604769  
C86      C      0.494930000000     0.652810000000     0.804960000000    -0.0413845  
C87      C      0.499670000000     0.787430000000     0.725490000000     0.0595651  
C88      C      0.493590000000     0.860350000000     0.706970000000    -0.0650569  
C89      C      0.459200000000     0.777000000000     0.738670000000    -0.0564103  
C90      C      0.510940000000     0.893030000000     0.676580000000     0.0959244  
C91      C      0.505810000000     0.836920000000     0.620030000000     0.0211262  
C92      C      0.527860000000     0.736130000000     0.773350000000    -0.0570225  
C93      C      0.557850000000     0.899480000000     0.683570000000    -0.182982   
C94      C      0.509320000000     0.207390000000     0.656680000000    -0.0472121  
C95      C      0.483540000000     0.305970000000     0.862450000000    -0.0408517  
C96      C      0.499310000000     0.392600000000     0.840050000000     0.022027   
C97      C      0.496770000000     0.336220000000     0.896780000000     0.0198117  
C98      C      0.534810000000     0.269340000000     0.774620000000    -0.0550386  
C99      C      0.457300000000     0.243720000000     0.744510000000    -0.0549603  
C100     C      0.498480000000     0.287060000000     0.790960000000     0.0601973  
C101     C      0.485630000000     0.358960000000     0.809400000000    -0.0416412  
C102     C      0.493650000000     0.226080000000     0.728090000000     0.0593738  
C103     C      0.505770000000     0.154050000000     0.709590000000    -0.0664009  
C104     C      0.532570000000     0.239050000000     0.743470000000    -0.0566309  
C105     C      0.492490000000     0.120460000000     0.678240000000     0.0995191  
C106     C      0.497100000000     0.176990000000     0.622080000000     0.0333222  
C107     C      0.459550000000     0.273970000000     0.775700000000    -0.0572081  
C108     C      0.445770000000     0.110880000000     0.682490000000    -0.182956   
C109     C      0.861390000000     0.303090000000     0.491360000000    -0.0469324  
C110     C      0.655180000000     0.202950000000     0.494360000000    -0.0458049  
C111     C      0.676630000000     0.116480000000     0.477790000000     0.032104   
C112     C      0.621830000000     0.173090000000     0.478160000000     0.0329827  
C113     C      0.746880000000     0.241230000000     0.452230000000    -0.055175   
C114     C      0.770120000000     0.263190000000     0.533190000000    -0.0547981  
C115     C      0.727800000000     0.221480000000     0.486140000000     0.0596969  
C116     C      0.707880000000     0.148960000000     0.493420000000    -0.0454883  
C117     C      0.789110000000     0.283020000000     0.499290000000     0.0590604  
C118     C      0.807770000000     0.355800000000     0.491740000000    -0.0675709  
C119     C      0.777280000000     0.271730000000     0.458590000000    -0.0565287  
C120     C      0.837480000000     0.389260000000     0.508850000000     0.103084   
C121     C      0.894260000000     0.333330000000     0.508010000000     0.0331009  
C122     C      0.739740000000     0.232670000000     0.526830000000    -0.0570227  
C123     C      0.828900000000     0.397480000000     0.555230000000    -0.182133   
C124     C      0.859340000000     0.703440000000     0.520590000000    -0.042491   
C125     C      0.653900000000     0.802860000000     0.498400000000    -0.0423417  
C126     C      0.676320000000     0.889210000000     0.515280000000     0.0321997  
C127     C      0.619800000000     0.833220000000     0.511780000000     0.0237027  
C128     C      0.741480000000     0.764460000000     0.548510000000    -0.0549995  
C129     C      0.771400000000     0.741250000000     0.470140000000    -0.054913   
C130     C      0.725220000000     0.783430000000     0.512740000000     0.060236   
C131     C      0.707250000000     0.855700000000     0.501810000000    -0.0453316  
C132     C      0.787790000000     0.722450000000     0.505890000000     0.0597518  
C133     C      0.806860000000     0.650000000000     0.515080000000    -0.0653822  
C134     C      0.772490000000     0.734120000000     0.545260000000    -0.056606   
C135     C      0.838000000000     0.617500000000     0.498970000000     0.0975829  
C136     C      0.893940000000     0.674110000000     0.506080000000     0.0206168  
C137     C      0.740350000000     0.771480000000     0.473370000000    -0.0570184  
C138     C      0.832630000000     0.611150000000     0.451840000000    -0.177954   
C139     C      0.361270000000     0.207470000000     0.497670000000    -0.0484627  
C140     C      0.157420000000     0.308290000000     0.483720000000    -0.0467688  
C141     C      0.179710000000     0.395230000000     0.497390000000     0.0360145  
C142     C      0.124230000000     0.338080000000     0.500010000000     0.0345634  
C143     C      0.245550000000     0.268860000000     0.527100000000    -0.0554327  
C144     C      0.274180000000     0.248900000000     0.447330000000    -0.0555428  
C145     C      0.229570000000     0.289990000000     0.492500000000     0.0601949  
C146     C      0.209910000000     0.362040000000     0.481770000000    -0.0472988  
C147     C      0.290650000000     0.228260000000     0.482000000000     0.0598192  
C148     C      0.308220000000     0.155130000000     0.485160000000    -0.0678555  
C149     C      0.275690000000     0.238010000000     0.522020000000    -0.0569889  
C150     C      0.340450000000     0.123430000000     0.469590000000     0.104212   
C151     C      0.395950000000     0.178200000000     0.483600000000     0.0372621  
C152     C      0.243650000000     0.279380000000     0.452360000000    -0.057308   
C153     C      0.341000000000     0.122080000000     0.421750000000    -0.185474   
C154     C      0.206530000000     0.656420000000     0.502710000000    -0.0479805  
C155     C      0.306500000000     0.861560000000     0.504500000000    -0.0404522  
C156     C      0.392000000000     0.837980000000     0.523650000000     0.0196265  
C157     C      0.336560000000     0.894220000000     0.521570000000     0.0190113  
C158     C      0.265060000000     0.770610000000     0.544260000000    -0.0551814  
C159     C      0.246580000000     0.747730000000     0.462290000000    -0.0550254  
C160     C      0.286460000000     0.789470000000     0.511300000000     0.0603349  
C161     C      0.359410000000     0.807760000000     0.506650000000    -0.0406854  
C162     C      0.225310000000     0.728740000000     0.495270000000     0.0594516  
C163     C      0.152600000000     0.709170000000     0.499410000000    -0.0684633  
C164     C      0.234690000000     0.740500000000     0.536460000000    -0.056521   
C165     C      0.120390000000     0.678070000000     0.482440000000     0.105088   
C166     C      0.177360000000     0.622940000000     0.485750000000     0.0361895  
C167     C      0.276900000000     0.777890000000     0.470090000000    -0.0571982  
C168     C      0.114070000000     0.683830000000     0.435370000000    -0.185252   
C169     C      0.653490000000     0.506350000000     0.207230000000    -0.043031   
C170     C      0.860240000000     0.497660000000     0.304590000000    -0.0454344  
C171     C      0.836260000000     0.502160000000     0.392220000000     0.0252606  
C172     C      0.892490000000     0.512420000000     0.336270000000     0.0328422  
C173     C      0.767320000000     0.539710000000     0.271420000000    -0.0554431  
C174     C      0.746350000000     0.461260000000     0.240250000000    -0.0551163  
C175     C      0.787540000000     0.504330000000     0.286750000000     0.0606319  
C176     C      0.807670000000     0.487520000000     0.357320000000    -0.042744   
C177     C      0.725900000000     0.496620000000     0.225160000000     0.059956   
C178     C      0.706490000000     0.510570000000     0.153850000000    -0.0654002  
C179     C      0.736780000000     0.536050000000     0.240750000000    -0.0568435  
C180     C      0.676500000000     0.496300000000     0.119530000000     0.0975159  
C181     C      0.620280000000     0.492600000000     0.176100000000     0.0225901  
C182     C      0.777060000000     0.464940000000     0.270770000000    -0.0573847  
C183     C      0.684700000000     0.450680000000     0.107680000000    -0.182582   
C184     C      0.208350000000     0.508430000000     0.361990000000    -0.0487402  
C185     C      0.306600000000     0.518160000000     0.154190000000    -0.0431752  
C186     C      0.391650000000     0.539630000000     0.176950000000     0.0191669  
C187     C      0.336010000000     0.536900000000     0.121560000000     0.0256811  
C188     C      0.264500000000     0.552980000000     0.246780000000    -0.0554986  
C189     C      0.251520000000     0.470060000000     0.269500000000    -0.0551749  
C190     C      0.287580000000     0.521560000000     0.227190000000     0.0596491  
C191     C      0.360490000000     0.520220000000     0.207270000000    -0.0404896  
C192     C      0.228770000000     0.501500000000     0.289380000000     0.0587805  
C193     C      0.155750000000     0.498120000000     0.308720000000    -0.0687268  
C194     C      0.235200000000     0.543160000000     0.277510000000    -0.0566404  
C195     C      0.125920000000     0.476950000000     0.339660000000     0.107361   
C196     C      0.180530000000     0.488930000000     0.395570000000     0.0377422  
C197     C      0.280600000000     0.479840000000     0.238580000000    -0.0574051  
C198     C      0.128720000000     0.429510000000     0.335470000000    -0.186747   
C199     C      0.362840000000     0.486330000000     0.807520000000    -0.0438631  
C200     C      0.156520000000     0.490740000000     0.708440000000    -0.0394029  
C201     C      0.179560000000     0.510300000000     0.622780000000     0.0314997  
C202     C      0.123840000000     0.509370000000     0.679240000000     0.0155138  
C203     C      0.248200000000     0.527920000000     0.749700000000    -0.0554072  
C204     C      0.271340000000     0.445600000000     0.765640000000    -0.0550849  
C205     C      0.229120000000     0.495600000000     0.727550000000     0.0601993  
C206     C      0.209460000000     0.491720000000     0.654790000000    -0.0449965  
C207     C      0.290690000000     0.477950000000     0.787520000000     0.0592657  
C208     C      0.309330000000     0.478270000000     0.860540000000    -0.0687944  
C209     C      0.278630000000     0.519300000000     0.779560000000    -0.0565569  
C210     C      0.340780000000     0.460730000000     0.892100000000     0.106152   
C211     C      0.396450000000     0.469420000000     0.836700000000     0.0241897  
C212     C      0.240690000000     0.454200000000     0.735960000000    -0.0573652  
C213     C      0.338020000000     0.413110000000     0.894200000000    -0.186952   
C214     C      0.852260000000     0.478940000000     0.694990000000    -0.0405669  
C215     C      0.705870000000     0.517010000000     0.861150000000    -0.0378312  
C216     C      0.622600000000     0.486930000000     0.840710000000     0.0196967  
C217     C      0.669330000000     0.528730000000     0.889420000000     0.0120001  
C218     C      0.714590000000     0.503860000000     0.744680000000    -0.053691   
C219     C      0.798250000000     0.508310000000     0.766770000000    -0.0537536  
C220     C      0.725050000000     0.504700000000     0.787240000000     0.0583976  
C221     C      0.662300000000     0.473860000000     0.817900000000    -0.0405602  
C222     C      0.787830000000     0.506630000000     0.724290000000     0.0578868  
C223     C      0.807120000000     0.518430000000     0.650010000000    -0.0649407  
C224     C      0.745260000000     0.503170000000     0.713770000000    -0.0548559  
C225     C      0.843730000000     0.532160000000     0.621960000000     0.0961294  
C226     C      0.891650000000     0.494330000000     0.673460000000     0.0161149  
C227     C      0.767810000000     0.505710000000     0.797690000000    -0.0546629  
C228     C      0.851710000000     0.579050000000     0.626510000000    -0.182572   
C229     C      0.857100000000     0.806430000000     0.000520000000    -0.0498004  
C230     C      0.650620000000     0.707100000000     0.013330000000    -0.0574055  
C231     C      0.674440000000     0.620420000000     0.000760000000     0.00533136 
C232     C      0.617540000000     0.675970000000     0.998940000000     0.0428149  
C233     C      0.740960000000     0.744910000000     0.968120000000    -0.0446849  
C234     C      0.766480000000     0.769660000000     0.047590000000    -0.0548141  
C235     C      0.722710000000     0.726580000000     0.003260000000     0.0459397  
C236     C      0.704340000000     0.654510000000     0.015060000000    -0.0424719  
C237     C      0.784980000000     0.787710000000     0.012460000000     0.0513861  
C238     C      0.804390000000     0.859980000000     0.003320000000    -0.0757607  
C239     C      0.771770000000     0.775320000000     0.972530000000    -0.0494929  
C240     C      0.835300000000     0.892930000000     0.019080000000     0.0994564  
C241     C      0.891230000000     0.836200000000     0.015290000000     0.012501   
C242     C      0.735560000000     0.739400000000     0.043180000000    -0.0537501  
C243     C      0.829140000000     0.901010000000     0.065870000000    -0.179395   
C244     C      0.653530000000     0.307950000000     0.004880000000    -0.0686266  
C245     C      0.857990000000     0.206270000000     0.009140000000    -0.0553349  
C246     C      0.834350000000     0.120780000000     0.028090000000     0.02656    
C247     C      0.890570000000     0.176240000000     0.026480000000     0.034734   
C248     C      0.766580000000     0.247720000000     0.048190000000    -0.0469717  
C249     C      0.745050000000     0.267060000000     0.966060000000    -0.06265    
C250     C      0.785750000000     0.226370000000     0.015350000000     0.0461678  
C251     C      0.804190000000     0.153360000000     0.010780000000    -0.0525939  
C252     C      0.725870000000     0.288400000000     0.998900000000     0.0727915  
C253     C      0.706920000000     0.361270000000     0.003900000000    -0.091238   
C254     C      0.736870000000     0.278470000000     0.040190000000    -0.0709897  
C255     C      0.676540000000     0.394170000000     0.986820000000     0.117608   
C256     C      0.620750000000     0.337750000000     0.987550000000     0.042684   
C257     C      0.774750000000     0.236300000000     0.974060000000    -0.0417158  
C258     C      0.683740000000     0.401670000000     0.940110000000    -0.193048   
C259     C      0.356830000000     0.704290000000     0.034240000000    -0.0412025  
C260     C      0.151320000000     0.803220000000     0.017160000000    -0.0535182  
C261     C      0.174970000000     0.890130000000     0.027420000000     0.0351379  
C262     C      0.118250000000     0.834920000000     0.029850000000     0.0285768  
C263     C      0.241020000000     0.767410000000     0.064690000000    -0.0540395  
C264     C      0.266720000000     0.739470000000     0.986350000000    -0.0472032  
C265     C      0.223150000000     0.784380000000     0.028700000000     0.0516183  
C266     C      0.205080000000     0.855910000000     0.014260000000    -0.0559176  
C267     C      0.284750000000     0.722700000000     0.022290000000     0.0520223  
C268     C      0.304100000000     0.650890000000     0.034660000000    -0.0650265  
C269     C      0.271600000000     0.736700000000     0.061650000000    -0.0563097  
C270     C      0.333760000000     0.617520000000     0.017800000000     0.0916882  
C271     C      0.390410000000     0.674340000000     0.018910000000     0.0138156  
C272     C      0.236100000000     0.770060000000     0.989370000000    -0.0489889  
C273     C      0.324220000000     0.608510000000     0.971680000000    -0.159271   
C274     C      0.361030000000     0.300710000000     0.992680000000    -0.0156612  
C275     C      0.154450000000     0.204710000000     0.023330000000    -0.0439878  
C276     C      0.175250000000     0.117370000000     0.009400000000     0.0261915  
C277     C      0.119410000000     0.174770000000     0.011410000000     0.0245052  
C278     C      0.242660000000     0.237640000000     0.969890000000    -0.0472574  
C279     C      0.273410000000     0.265440000000     0.046440000000    -0.0548574  
C280     C      0.226010000000     0.221730000000     0.006920000000     0.0517386  
C281     C      0.206500000000     0.150750000000     0.021970000000    -0.0444095  
C282     C      0.289980000000     0.281440000000     0.009420000000     0.0518905  
C283     C      0.307350000000     0.353130000000     0.995180000000    -0.0382832  
C284     C      0.274390000000     0.267320000000     0.970980000000    -0.04988    
C285     C      0.337760000000     0.387460000000     0.008340000000     0.0711957  
C286     C      0.395130000000     0.331810000000     0.004470000000    -0.00413787 
C287     C      0.241690000000     0.235770000000     0.045350000000    -0.0564261  
C288     C      0.332350000000     0.397670000000     0.054870000000    -0.157765   
C289     C      0.855140000000     0.003050000000     0.810590000000    -0.0668051  
C290     C      0.649110000000     0.006090000000     0.711640000000    -0.0502224  
C291     C      0.673830000000     0.026510000000     0.626670000000     0.0321684  
C292     C      0.616810000000     0.023830000000     0.681510000000     0.01941    
C293     C      0.740390000000     0.045170000000     0.753810000000    -0.0463902  
C294     C      0.763080000000     0.963100000000     0.771610000000    -0.0632576  
C295     C      0.721180000000     0.012460000000     0.732400000000     0.0461052  
C296     C      0.703490000000     0.008660000000     0.659280000000    -0.0545617  
C297     C      0.782520000000     0.995840000000     0.792800000000     0.0740575  
C298     C      0.803040000000     0.999540000000     0.865240000000    -0.0572598  
C299     C      0.770800000000     0.037080000000     0.783820000000    -0.0716877  
C300     C      0.834640000000     0.982640000000     0.896990000000     0.100918   
C301     C      0.889050000000     0.986190000000     0.839340000000     0.0383181  
C302     C      0.732610000000     0.971200000000     0.741640000000    -0.0413777  
C303     C      0.829250000000     0.935580000000     0.903210000000    -0.185101   
C304     C      0.303970000000     0.008150000000     0.647550000000    -0.0691674  
C305     C      0.203240000000     0.007330000000     0.853180000000    -0.0546578  
C306     C      0.116640000000     0.023810000000     0.831530000000     0.0200777  
C307     C      0.173520000000     0.023680000000     0.886590000000     0.0327813  
C308     C      0.241840000000     0.047880000000     0.761420000000    -0.0469431  
C309     C      0.262470000000     0.966540000000     0.738540000000    -0.0627912  
C310     C      0.221460000000     0.014420000000     0.780520000000     0.0460837  
C311     C      0.149060000000     0.007550000000     0.800630000000    -0.0503504  
C312     C      0.282870000000     0.999990000000     0.719480000000     0.0729746  
C313     C      0.356010000000     0.005440000000     0.702130000000    -0.0915771  
C314     C      0.272330000000     0.040880000000     0.731160000000    -0.0711913  
C315     C      0.389430000000     0.988600000000     0.672290000000     0.11774    
C316     C      0.334500000000     0.991600000000     0.614940000000     0.0432183  
C317     C      0.232020000000     0.973530000000     0.768840000000    -0.0416543  
C318     C      0.395990000000     0.941700000000     0.678640000000    -0.191635   
C319     C      0.155180000000     0.033010000000     0.203150000000    -0.0468807  
C320     C      0.361770000000     0.011080000000     0.300970000000    -0.0549676  
C321     C      0.336750000000     0.007660000000     0.388420000000     0.00240291 
C322     C      0.394190000000     0.021740000000     0.334220000000     0.0324922  
C323     C      0.270350000000     0.058490000000     0.269680000000    -0.0544975  
C324     C      0.247420000000     0.983250000000     0.232630000000    -0.0471562  
C325     C      0.289550000000     0.021490000000     0.282560000000     0.051001   
C326     C      0.308110000000     0.997990000000     0.351710000000    -0.0166666  
C327     C      0.227800000000     0.020110000000     0.220230000000     0.0508725  
C328     C      0.207150000000     0.037540000000     0.149420000000    -0.0679158  
C329     C      0.239800000000     0.057970000000     0.238610000000    -0.0562177  
C330     C      0.177770000000     0.021470000000     0.115240000000     0.0991057  
C331     C      0.121370000000     0.019050000000     0.172600000000     0.0275512  
C332     C      0.278140000000     0.983790000000     0.263400000000    -0.0494383  
C333     C      0.189370000000     0.976570000000     0.103630000000    -0.164633   
C334     C      0.709530000000     0.028650000000     0.364840000000    -0.046361   
C335     C      0.807370000000     0.010220000000     0.158770000000    -0.0532905  
C336     C      0.894820000000     0.025080000000     0.178060000000     0.0361656  
C337     C      0.836720000000     0.023740000000     0.123930000000     0.0273428  
C338     C      0.771960000000     0.057740000000     0.248000000000    -0.0541825  
C339     C      0.750150000000     0.978710000000     0.277050000000    -0.0472732  
C340     C      0.791080000000     0.022480000000     0.231000000000     0.0516888  
C341     C      0.862530000000     0.011640000000     0.210190000000    -0.0562735  
C342     C      0.731040000000     0.013940000000     0.294040000000     0.0516383  
C343     C      0.658040000000     0.020450000000     0.310600000000    -0.0690486  
C344     C      0.742020000000     0.053640000000     0.279240000000    -0.0560248  
C345     C      0.625060000000     0.004020000000     0.340950000000     0.100866   
C346     C      0.679650000000     0.013460000000     0.398580000000     0.0258582  
C347     C      0.779910000000     0.982780000000     0.245710000000    -0.0491112  
C348     C      0.620090000000     0.956690000000     0.336310000000    -0.166995   
C349     C      0.018290000000     0.304430000000     0.651310000000    -0.0578411  
C350     C      0.018100000000     0.203990000000     0.855340000000    -0.0434394  
C351     C      0.999750000000     0.118130000000     0.832310000000     0.0429207  
C352     C      0.000470000000     0.174750000000     0.888230000000     0.0232052  
C353     C      0.977890000000     0.243450000000     0.764350000000    -0.0473461  
C354     C      0.059580000000     0.263450000000     0.741790000000    -0.0537491  
C355     C      0.011220000000     0.222740000000     0.783130000000     0.0529317  
C356     C      0.017330000000     0.150400000000     0.802320000000    -0.0520621  
C357     C      0.026220000000     0.284180000000     0.723010000000     0.051051   
C358     C      0.020810000000     0.356950000000     0.705730000000    -0.0775915  
C359     C      0.985180000000     0.274020000000     0.734480000000    -0.0480779  
C360     C      0.037010000000     0.390160000000     0.675520000000     0.103649   
C361     C      0.034410000000     0.334840000000     0.618680000000     0.0371468  
C362     C      0.052280000000     0.232900000000     0.771710000000    -0.0566622  
C363     C      0.084070000000     0.396660000000     0.680790000000    -0.186919   
C364     C      0.002870000000     0.704980000000     0.653100000000    -0.0696392  
C365     C      0.991520000000     0.804260000000     0.860320000000    -0.0117488  
C366     C      0.005850000000     0.890870000000     0.837030000000    -0.0104221  
C367     C      0.006050000000     0.834890000000     0.893880000000    -0.00632454 
C368     C      0.037660000000     0.768080000000     0.768710000000    -0.0469562  
C369     C      0.958520000000     0.740840000000     0.744920000000    -0.0622689  
C370     C      0.002430000000     0.785080000000     0.788040000000     0.0468902  
C371     C      0.990960000000     0.857090000000     0.806980000000    -0.0100851  
C372     C      0.993760000000     0.723750000000     0.725690000000     0.072794   
C373     C      0.006870000000     0.652000000000     0.706370000000    -0.0924367  
C374     C      0.033510000000     0.737710000000     0.737780000000    -0.0709701  
C375     C      0.992400000000     0.617580000000     0.676430000000     0.119059   
C376     C      0.988790000000     0.673630000000     0.620000000000     0.0430156  
C377     C      0.962670000000     0.771300000000     0.775770000000    -0.0422867  
C378     C      0.946780000000     0.606160000000     0.684600000000    -0.193573   
C379     C      0.007370000000     0.806160000000     0.155000000000    -0.0558991  
C380     C      0.014720000000     0.707730000000     0.360190000000    -0.0614782  
C381     C      0.997200000000     0.621790000000     0.336890000000     0.0599623  
C382     C      0.998470000000     0.677790000000     0.393190000000     0.0497796  
C383     C      0.971690000000     0.747610000000     0.270560000000    -0.0447713  
C384     C      0.052460000000     0.767600000000     0.244910000000    -0.0555904  
C385     C      0.005740000000     0.727080000000     0.288310000000     0.0457596  
C386     C      0.013230000000     0.654640000000     0.306630000000    -0.0650656  
C387     C      0.018390000000     0.787850000000     0.226900000000     0.051936   
C388     C      0.012850000000     0.860190000000     0.207500000000    -0.0813115  
C389     C      0.977830000000     0.777890000000     0.240110000000    -0.0496463  
C390     C      0.028660000000     0.892180000000     0.175760000000     0.112864   
C391     C      0.022940000000     0.835080000000     0.120790000000     0.0301533  
C392     C      0.046330000000     0.737440000000     0.275500000000    -0.0536807  
C393     C      0.075940000000     0.898220000000     0.179620000000    -0.183637   
C394     C      0.003540000000     0.357150000000     0.307030000000    -0.0566629  
C395     C      0.032720000000     0.154730000000     0.203570000000    -0.0445295  
C396     C      0.014900000000     0.176560000000     0.117070000000     0.024579   
C397     C      0.018860000000     0.120300000000     0.173770000000     0.0258002  
C398     C      0.981910000000     0.239230000000     0.244650000000    -0.0470531  
C399     C      0.059280000000     0.273680000000     0.264450000000    -0.0538815  
C400     C      0.017510000000     0.225720000000     0.223290000000     0.0512136  
C401     C      0.028470000000     0.207610000000     0.150590000000    -0.0440724  
C402     C      0.023620000000     0.287570000000     0.285400000000     0.0494367  
C403     C      0.019280000000     0.305320000000     0.358910000000    -0.0794721  
C404     C      0.984820000000     0.269750000000     0.275590000000    -0.0479699  
C405     C      0.035700000000     0.337580000000     0.390310000000     0.109155   
C406     C      0.017260000000     0.392970000000     0.335320000000     0.0292721  
C407     C      0.056430000000     0.242910000000     0.233800000000    -0.0566715  
C408     C      0.083400000000     0.335670000000     0.392350000000    -0.18281    
H1       H      0.976300000000     0.976270000000     0.037770000000    -1.24059    
H2       H      0.030770000000     0.030760000000     0.029440000000    -1.05812    
H3       H      0.966290000000     0.075290000000     0.968590000000    -0.524515   
H4       H      0.075190000000     0.967100000000     0.966990000000    -0.502637   
H5       H      0.978660000000     0.534640000000     0.475450000000    -1.23296    
H6       H      0.033920000000     0.481210000000     0.481530000000    -1.06676    
H7       H      0.972340000000     0.434370000000     0.543940000000    -0.50501    
H8       H      0.078350000000     0.544870000000     0.543850000000    -0.556457   
H9       H      0.477590000000     0.976020000000     0.474850000000    -1.24931    
H10      H      0.532190000000     0.030390000000     0.482510000000    -1.05205    
H11      H      0.575910000000     0.968280000000     0.546610000000    -0.489503   
H12      H      0.467630000000     0.076590000000     0.541980000000    -0.546279   
H13      H      0.478240000000     0.528950000000     0.032070000000    -0.803287   
H14      H      0.479010000000     0.480080000000     0.983140000000    -1.45612    
H15      H      0.542840000000     0.435890000000     0.046520000000    -0.272457   
H16      H      0.540750000000     0.544100000000     0.937530000000    -0.335168   
H17      H      0.568530000000     0.292240000000     0.224510000000     0.0389377  
H18      H      0.520950000000     0.235720000000     0.368550000000     0.0349411  
H19      H      0.532950000000     0.142800000000     0.275540000000     0.0397357  
H20      H      0.452350000000     0.391150000000     0.185160000000     0.0249659  
H21      H      0.566710000000     0.183400000000     0.396600000000     0.0189543  
H22      H      0.495800000000     0.271440000000     0.147640000000     0.0337077  
H23      H      0.493920000000     0.364040000000     0.241610000000     0.0343526  
H24      H      0.501400000000     0.326260000000     0.092760000000     0.0329844  
H25      H      0.527600000000     0.087280000000     0.330890000000     0.0118409  
H26      H      0.584660000000     0.239330000000     0.277200000000     0.041141   
H27      H      0.518100000000     0.181700000000     0.424010000000     0.0303873  
H28      H      0.437570000000     0.266530000000     0.238770000000     0.0420377  
H29      H      0.479530000000     0.198610000000     0.360840000000     0.037255   
H30      H      0.500250000000     0.419770000000     0.187260000000     0.0318928  
H31      H      0.540300000000     0.305040000000     0.154060000000     0.0374489  
H32      H      0.539260000000     0.358970000000     0.208910000000     0.0375045  
H33      H      0.453800000000     0.213150000000     0.291090000000     0.0383481  
H34      H      0.486700000000     0.144980000000     0.306840000000     0.0411275  
H35      H      0.453230000000     0.327390000000     0.121010000000     0.0257233  
H36      H      0.595530000000     0.104320000000     0.301520000000     0.0573601  
H37      H      0.601260000000     0.094700000000     0.356520000000     0.0624941  
H38      H      0.602370000000     0.147210000000     0.337180000000     0.0679666  
H39      H      0.558100000000     0.724800000000     0.214110000000     0.0387532  
H40      H      0.505300000000     0.865010000000     0.274100000000     0.0346284  
H41      H      0.519570000000     0.771120000000     0.365660000000     0.0406579  
H42      H      0.440910000000     0.676350000000     0.118860000000     0.0265797  
H43      H      0.549390000000     0.895020000000     0.326610000000     0.0180867  
H44      H      0.493020000000     0.643640000000     0.237280000000     0.0340831  
H45      H      0.479370000000     0.735730000000     0.143850000000     0.0336241  
H46      H      0.498560000000     0.588400000000     0.183050000000     0.034206   
H47      H      0.511210000000     0.825730000000     0.422050000000     0.0147451  
H48      H      0.572100000000     0.777740000000     0.267510000000     0.0408105  
H49      H      0.499190000000     0.919200000000     0.329690000000     0.0249922  
H50      H      0.427140000000     0.730670000000     0.242730000000     0.0423678  
H51      H      0.464010000000     0.855080000000     0.310800000000     0.0367047  
H52      H      0.487350000000     0.681100000000     0.088320000000     0.0353632  
H53      H      0.534870000000     0.652690000000     0.200940000000     0.0369753  
H54      H      0.527220000000     0.706660000000     0.147180000000     0.0363733  
H55      H      0.441150000000     0.783560000000     0.296160000000     0.0383726  
H56      H      0.472530000000     0.801070000000     0.363480000000     0.0411462  
H57      H      0.449090000000     0.614280000000     0.184070000000     0.0268144  
H58      H      0.580200000000     0.797050000000     0.406010000000     0.0587033  
H59      H      0.584780000000     0.851480000000     0.418010000000     0.07267    
H60      H      0.587760000000     0.834440000000     0.364640000000     0.067513   
H61      H      0.554770000000     0.720750000000     0.786510000000     0.0400764  
H62      H      0.498180000000     0.775180000000     0.645040000000     0.0347684  
H63      H      0.504600000000     0.867350000000     0.739120000000     0.0408114  
H64      H      0.445690000000     0.616000000000     0.832230000000     0.025839   
H65      H      0.538950000000     0.829150000000     0.613720000000     0.027721   
H66      H      0.486580000000     0.737840000000     0.867030000000     0.0355189  
H67      H      0.482590000000     0.644840000000     0.773570000000     0.0348865  
H68      H      0.498300000000     0.683340000000     0.921500000000     0.0344816  
H69      H      0.495260000000     0.923000000000     0.683980000000     0.015868   
H70      H      0.565090000000     0.774580000000     0.733290000000     0.0420841  
H71      H      0.488090000000     0.830960000000     0.590870000000     0.0343221  
H72      H      0.421960000000     0.738500000000     0.778730000000     0.0427596  
H73      H      0.454650000000     0.809290000000     0.654360000000     0.0365418  
H74      H      0.494710000000     0.589700000000     0.827650000000     0.0329734  
H75      H      0.531840000000     0.705970000000     0.857800000000     0.0390118  
H76      H      0.529560000000     0.651990000000     0.803460000000     0.0386663  
H77      H      0.432340000000     0.792550000000     0.725580000000     0.0388137  
H78      H      0.458970000000     0.862450000000     0.707320000000     0.039923   
H79      H      0.448200000000     0.680730000000     0.896970000000     0.0262859  
H80      H      0.563920000000     0.909590000000     0.716100000000     0.0606664  
H81      H      0.569870000000     0.924030000000     0.662420000000     0.0791646  
H82      H      0.575300000000     0.870280000000     0.677480000000     0.0707735  
H83      H      0.431030000000     0.287180000000     0.787810000000     0.0384354  
H84      H      0.498500000000     0.239020000000     0.647650000000     0.0348667  
H85      H      0.493530000000     0.146070000000     0.741060000000     0.0405772  
H86      H      0.532880000000     0.399330000000     0.834910000000     0.0291002  
H87      H      0.463970000000     0.182430000000     0.613660000000     0.0233867  
H88      H      0.494270000000     0.274230000000     0.871230000000     0.0347341  
H89      H      0.497770000000     0.367210000000     0.777990000000     0.034329   
H90      H      0.477550000000     0.329990000000     0.924900000000     0.0347135  
H91      H      0.509750000000     0.091600000000     0.686530000000     0.0156749  
H92      H      0.427160000000     0.233920000000     0.733040000000     0.0411565  
H93      H      0.516130000000     0.184190000000     0.594050000000     0.0254174  
H94      H      0.564970000000     0.279130000000     0.786080000000     0.0427806  
H95      H      0.543870000000     0.208270000000     0.659460000000     0.0372134  
H96      H      0.481910000000     0.421600000000     0.832780000000     0.034921   
H97      H      0.448930000000     0.305340000000     0.860350000000     0.0350797  
H98      H      0.451000000000     0.358350000000     0.807650000000     0.0352069  
H99      H      0.561090000000     0.225790000000     0.731430000000     0.0390125  
H100     H      0.540380000000     0.154390000000     0.711850000000     0.0421706  
H101     H      0.529690000000     0.329700000000     0.905310000000     0.0306941  
H102     H      0.438530000000     0.100150000000     0.714570000000     0.0584869  
H103     H      0.436600000000     0.085760000000     0.660600000000     0.0773761  
H104     H      0.426790000000     0.138900000000     0.675490000000     0.0694957  
H105     H      0.725500000000     0.217950000000     0.553580000000     0.0389371  
H106     H      0.869740000000     0.271160000000     0.501850000000     0.0355073  
H107     H      0.775270000000     0.363100000000     0.501390000000     0.0405802  
H108     H      0.680660000000     0.112850000000     0.443580000000     0.0193239  
H109     H      0.899190000000     0.326970000000     0.541690000000     0.0236384  
H110     H      0.647330000000     0.234900000000     0.483570000000     0.0346474  
H111     H      0.739330000000     0.140440000000     0.481630000000     0.0344058  
H112     H      0.591490000000     0.181620000000     0.492410000000     0.030525   
H113     H      0.830520000000     0.418570000000     0.491740000000     0.0158094  
H114     H      0.778870000000     0.271550000000     0.564670000000     0.0415768  
H115     H      0.924140000000     0.326790000000     0.491810000000     0.0270805  
H116     H      0.738020000000     0.232990000000     0.420750000000     0.0419275  
H117     H      0.861970000000     0.303480000000     0.456670000000     0.0374792  
H118     H      0.684330000000     0.086150000000     0.492500000000     0.0307576  
H119     H      0.654820000000     0.202820000000     0.529050000000     0.037431   
H120     H      0.708770000000     0.148180000000     0.528090000000     0.0372167  
H121     H      0.791450000000     0.286550000000     0.431860000000     0.0386837  
H122     H      0.808590000000     0.356660000000     0.457060000000     0.0420966  
H123     H      0.619250000000     0.177580000000     0.444000000000     0.0203704  
H124     H      0.796170000000     0.407650000000     0.559820000000     0.058444   
H125     H      0.849530000000     0.422590000000     0.566990000000     0.0734381  
H126     H      0.834510000000     0.369010000000     0.574010000000     0.0693167  
H127     H      0.728270000000     0.785590000000     0.445260000000     0.038426   
H128     H      0.867920000000     0.735720000000     0.511460000000     0.035576   
H129     H      0.775130000000     0.642520000000     0.503220000000     0.0398953  
H130     H      0.680040000000     0.894830000000     0.549250000000     0.0257327  
H131     H      0.902180000000     0.681900000000     0.473350000000     0.027192   
H132     H      0.644840000000     0.771090000000     0.508790000000     0.0342009  
H133     H      0.738360000000     0.863740000000     0.514780000000     0.0359613  
H134     H      0.591270000000     0.826370000000     0.493410000000     0.0308077  
H135     H      0.830400000000     0.587500000000     0.514540000000     0.0166278  
H136     H      0.782830000000     0.732410000000     0.439660000000     0.0415079  
H137     H      0.922000000000     0.680120000000     0.525470000000     0.0353438  
H138     H      0.730100000000     0.773330000000     0.578990000000     0.0429013  
H139     H      0.857040000000     0.702330000000     0.555190000000     0.0361662  
H140     H      0.684500000000     0.918620000000     0.498970000000     0.0268881  
H141     H      0.656120000000     0.802630000000     0.463770000000     0.0346008  
H142     H      0.709720000000     0.855660000000     0.467200000000     0.0367489  
H143     H      0.784570000000     0.719880000000     0.573310000000     0.0387003  
H144     H      0.805530000000     0.648460000000     0.549720000000     0.0397138  
H145     H      0.612190000000     0.827460000000     0.545080000000     0.0269148  
H146     H      0.801020000000     0.599000000000     0.444850000000     0.0578768  
H147     H      0.855850000000     0.588400000000     0.440230000000     0.066754   
H148     H      0.837300000000     0.640820000000     0.434750000000     0.0674557  
H149     H      0.231190000000     0.294700000000     0.425070000000     0.0377322  
H150     H      0.370950000000     0.239980000000     0.490730000000     0.0350652  
H151     H      0.277680000000     0.148910000000     0.469940000000     0.040162   
H152     H      0.186490000000     0.401700000000     0.530740000000     0.0223949  
H153     H      0.404870000000     0.186130000000     0.451100000000     0.0200637  
H154     H      0.149870000000     0.276450000000     0.495080000000     0.0337113  
H155     H      0.241900000000     0.370710000000     0.491860000000     0.0350293  
H156     H      0.094140000000     0.330370000000     0.484780000000     0.0286564  
H157     H      0.330570000000     0.092240000000     0.480870000000     0.0142517  
H158     H      0.285120000000     0.241300000000     0.416350000000     0.0408107  
H159     H      0.423560000000     0.184010000000     0.503670000000     0.0267     
H160     H      0.234520000000     0.276350000000     0.558080000000     0.0421117  
H161     H      0.357200000000     0.204450000000     0.531980000000     0.037879   
H162     H      0.185610000000     0.424430000000     0.479770000000     0.0292509  
H163     H      0.156760000000     0.307800000000     0.449050000000     0.0340412  
H164     H      0.209280000000     0.361580000000     0.447090000000     0.0350682  
H165     H      0.287460000000     0.222020000000     0.549230000000     0.0386819  
H166     H      0.303840000000     0.151130000000     0.519350000000     0.0424166  
H167     H      0.120090000000     0.332610000000     0.533970000000     0.0220196  
H168     H      0.310390000000     0.111450000000     0.409690000000     0.0606307  
H169     H      0.365450000000     0.100240000000     0.410840000000     0.0717987  
H170     H      0.347830000000     0.153210000000     0.408390000000     0.0696824  
H171     H      0.292910000000     0.792060000000     0.444050000000     0.038515   
H172     H      0.238890000000     0.648510000000     0.493190000000     0.0350868  
H173     H      0.144920000000     0.741020000000     0.488120000000     0.0408758  
H174     H      0.394530000000     0.833540000000     0.557910000000     0.0283515  
H175     H      0.183680000000     0.618680000000     0.451980000000     0.0199038  
H176     H      0.274410000000     0.870000000000     0.514500000000     0.034724   
H177     H      0.366860000000     0.776020000000     0.518310000000     0.0342676  
H178     H      0.329340000000     0.924440000000     0.506390000000     0.0354328  
H179     H      0.090230000000     0.685410000000     0.497820000000     0.0145453  
H180     H      0.239660000000     0.738980000000     0.430460000000     0.0410492  
H181     H      0.184990000000     0.593140000000     0.501570000000     0.0270794  
H182     H      0.272040000000     0.779270000000     0.576100000000     0.0426879  
H183     H      0.205110000000     0.656250000000     0.537370000000     0.0386417  
H184     H      0.422620000000     0.829770000000     0.509780000000     0.0334377  
H185     H      0.307530000000     0.862100000000     0.469830000000     0.0363346  
H186     H      0.361320000000     0.807300000000     0.472010000000     0.0360121  
H187     H      0.218700000000     0.726310000000     0.562500000000     0.0391476  
H188     H      0.150480000000     0.709670000000     0.534030000000     0.0428158  
H189     H      0.330850000000     0.897890000000     0.555520000000     0.0290123  
H190     H      0.101960000000     0.715500000000     0.428680000000     0.0586148  
H191     H      0.091100000000     0.660860000000     0.423600000000     0.0736008  
H192     H      0.143760000000     0.679360000000     0.418210000000     0.0685144  
H193     H      0.792450000000     0.437180000000     0.281990000000     0.0388     
H194     H      0.645580000000     0.493050000000     0.238250000000     0.0344404  
H195     H      0.738910000000     0.501630000000     0.145340000000     0.040417   
H196     H      0.826940000000     0.534180000000     0.401090000000     0.0219536  
H197     H      0.615250000000     0.458550000000     0.179500000000     0.0283898  
H198     H      0.867290000000     0.512560000000     0.274090000000     0.0350341  
H199     H      0.774940000000     0.494460000000     0.366390000000     0.0342363  
H200     H      0.923000000000     0.498270000000     0.328040000000     0.0264322  
H201     H      0.683250000000     0.515600000000     0.091550000000     0.0183662  
H202     H      0.738410000000     0.430790000000     0.228260000000     0.0413433  
H203     H      0.590570000000     0.508290000000     0.184400000000     0.0299363  
H204     H      0.775270000000     0.570190000000     0.283380000000     0.0422485  
H205     H      0.652950000000     0.540890000000     0.209900000000     0.0364809  
H206     H      0.831150000000     0.481870000000     0.419820000000     0.033127   
H207     H      0.862860000000     0.463340000000     0.300580000000     0.0369984  
H208     H      0.810740000000     0.453220000000     0.353560000000     0.0367362  
H209     H      0.721650000000     0.563860000000     0.229290000000     0.0387236  
H210     H      0.705600000000     0.545150000000     0.156030000000     0.0421236  
H211     H      0.896050000000     0.546720000000     0.333400000000     0.0210071  
H212     H      0.717170000000     0.446780000000     0.096460000000     0.0588593  
H213     H      0.663460000000     0.440880000000     0.082230000000     0.0794069  
H214     H      0.679620000000     0.429830000000     0.134800000000     0.0701415  
H215     H      0.297720000000     0.454930000000     0.223750000000     0.0381795  
H216     H      0.241430000000     0.502560000000     0.370450000000     0.0349047  
H217     H      0.149810000000     0.485890000000     0.276810000000     0.0394599  
H218     H      0.390780000000     0.573830000000     0.181550000000     0.0261167  
H219     H      0.190670000000     0.456300000000     0.400870000000     0.0185428  
H220     H      0.274220000000     0.527810000000     0.146520000000     0.0323879  
H221     H      0.368110000000     0.531080000000     0.239290000000     0.0342544  
H222     H      0.328480000000     0.522940000000     0.090810000000     0.0254433  
H223     H      0.093680000000     0.486350000000     0.331230000000     0.0111509  
H224     H      0.246660000000     0.437850000000     0.278060000000     0.0403953  
H225     H      0.185690000000     0.506230000000     0.425100000000     0.029493   
H226     H      0.269340000000     0.585190000000     0.238200000000     0.042      
H227     H      0.203250000000     0.542680000000     0.361560000000     0.037038   
H228     H      0.423420000000     0.528510000000     0.184890000000     0.0355041  
H229     H      0.308250000000     0.483590000000     0.152480000000     0.0339185  
H230     H      0.363810000000     0.485760000000     0.206420000000     0.0362026  
H231     H      0.217700000000     0.567990000000     0.292050000000     0.0382301  
H232     H      0.149330000000     0.532170000000     0.308170000000     0.0412128  
H233     H      0.329870000000     0.570870000000     0.119410000000     0.0245829  
H234     H      0.117940000000     0.419490000000     0.304180000000     0.0589177  
H235     H      0.108880000000     0.414880000000     0.359560000000     0.0576089  
H236     H      0.161060000000     0.418230000000     0.340100000000     0.0676244  
H237     H      0.226180000000     0.428640000000     0.719530000000     0.0383743  
H238     H      0.371610000000     0.478380000000     0.774940000000     0.0344957  
H239     H      0.277900000000     0.465210000000     0.867150000000     0.0398421  
H240     H      0.185900000000     0.544190000000     0.620010000000     0.0251375  
H241     H      0.401600000000     0.436000000000     0.829480000000     0.0230936  
H242     H      0.148910000000     0.500340000000     0.740870000000     0.0334188  
H243     H      0.241600000000     0.502060000000     0.647010000000     0.0349655  
H244     H      0.093330000000     0.494580000000     0.686170000000     0.0325741  
H245     H      0.331770000000     0.472920000000     0.923240000000     0.0106381  
H246     H      0.280100000000     0.413630000000     0.771650000000     0.0409179  
H247     H      0.425980000000     0.486080000000     0.829900000000     0.0356715  
H248     H      0.239420000000     0.559880000000     0.743730000000     0.0426705  
H249     H      0.361860000000     0.520830000000     0.810350000000     0.0366942  
H250     H      0.186360000000     0.495920000000     0.592020000000     0.0269979  
H251     H      0.155040000000     0.456180000000     0.706850000000     0.0337857  
H252     H      0.208410000000     0.457170000000     0.652550000000     0.0366948  
H253     H      0.292800000000     0.544850000000     0.796300000000     0.0383652  
H254     H      0.307360000000     0.512630000000     0.864640000000     0.0394854  
H255     H      0.120730000000     0.543110000000     0.686190000000     0.0298686  
H256     H      0.306640000000     0.403550000000     0.905080000000     0.0589093  
H257     H      0.361520000000     0.400910000000     0.916380000000     0.0698001  
H258     H      0.343790000000     0.398800000000     0.863260000000     0.0690975  
H259     H      0.778460000000     0.506190000000     0.829600000000     0.0384287  
H260     H      0.860790000000     0.470620000000     0.727460000000     0.0330581  
H261     H      0.782420000000     0.542670000000     0.648500000000     0.039243   
H262     H      0.606900000000     0.511910000000     0.822620000000     0.0321326  
H263     H      0.904930000000     0.520380000000     0.691890000000     0.0281398  
H264     H      0.727840000000     0.543750000000     0.861760000000     0.0344258  
H265     H      0.653290000000     0.464810000000     0.785780000000     0.0326503  
H266     H      0.680060000000     0.527390000000     0.922320000000     0.0390436  
H267     H      0.833830000000     0.526960000000     0.589150000000     0.0190298  
H268     H      0.830360000000     0.512150000000     0.776260000000     0.0403343  
H269     H      0.914920000000     0.468680000000     0.673250000000     0.0328646  
H270     H      0.682300000000     0.504370000000     0.735070000000     0.040234   
H271     H      0.840700000000     0.450090000000     0.679620000000     0.0377403  
H272     H      0.601000000000     0.459910000000     0.842330000000     0.0287646  
H273     H      0.721840000000     0.489170000000     0.874280000000     0.0350607  
H274     H      0.676110000000     0.445930000000     0.833100000000     0.0373794  
H275     H      0.734900000000     0.501530000000     0.681800000000     0.0375642  
H276     H      0.793690000000     0.489110000000     0.637250000000     0.0396128  
H277     H      0.660670000000     0.561630000000     0.883100000000     0.0319977  
H278     H      0.823870000000     0.596990000000     0.616580000000     0.0585205  
H279     H      0.878180000000     0.588760000000     0.606490000000     0.0710486  
H280     H      0.858920000000     0.586990000000     0.659390000000     0.0666631  
H281     H      0.721870000000     0.725870000000     0.070840000000     0.0375456  
H282     H      0.865440000000     0.774410000000     0.010730000000     0.0347798  
H283     H      0.772470000000     0.867800000000     0.014400000000     0.0407844  
H284     H      0.680140000000     0.613930000000     0.967220000000     0.0389229  
H285     H      0.897990000000     0.829760000000     0.048640000000     0.0266278  
H286     H      0.642070000000     0.738400000000     0.001220000000     0.0358348  
H287     H      0.736230000000     0.646260000000     0.004300000000     0.0332291  
H288     H      0.587900000000     0.683230000000     0.015300000000     0.0218459  
H289     H      0.827830000000     0.922390000000     0.002500000000     0.0138828  
H290     H      0.776190000000     0.779070000000     0.078480000000     0.0410528  
H291     H      0.920050000000     0.829250000000     0.997400000000     0.0425988  
H292     H      0.731330000000     0.735440000000     0.937220000000     0.0419859  
H293     H      0.855930000000     0.806680000000     0.965840000000     0.0429452  
H294     H      0.681950000000     0.591530000000     0.018280000000     0.0387442  
H295     H      0.650640000000     0.708630000000     0.048000000000     0.039746   
H296     H      0.704640000000     0.655610000000     0.049730000000     0.0372801  
H297     H      0.785350000000     0.789020000000     0.944910000000     0.038341   
H298     H      0.803670000000     0.860700000000     0.968640000000     0.0470701  
H299     H      0.612020000000     0.680440000000     0.965040000000     0.0289671  
H300     H      0.796860000000     0.911730000000     0.072100000000     0.0580121  
H301     H      0.850780000000     0.925660000000     0.076730000000     0.0682232  
H302     H      0.835160000000     0.872340000000     0.084220000000     0.066744   
H303     H      0.789120000000     0.220330000000     0.948110000000     0.036851   
H304     H      0.645500000000     0.275860000000     0.994610000000     0.0452416  
H305     H      0.739150000000     0.368810000000     0.993590000000     0.0510118  
H306     H      0.829560000000     0.118310000000     0.062300000000     0.0265837  
H307     H      0.617340000000     0.332060000000     0.953560000000     0.0229781  
H308     H      0.866330000000     0.238340000000     0.019210000000     0.0363869  
H309     H      0.772320000000     0.145880000000     0.022140000000     0.0351259  
H310     H      0.920930000000     0.183470000000     0.011540000000     0.0268517  
H311     H      0.683770000000     0.423830000000     0.003160000000     0.00776376 
H312     H      0.736850000000     0.274310000000     0.934160000000     0.0442743  
H313     H      0.590440000000     0.330130000000     0.002390000000     0.0238518  
H314     H      0.774760000000     0.240460000000     0.080090000000     0.0404922  
H315     H      0.652500000000     0.308780000000     0.039540000000     0.041661   
H316     H      0.826390000000     0.090130000000     0.014180000000     0.0295801  
H317     H      0.858840000000     0.205250000000     0.974470000000     0.0462656  
H318     H      0.804040000000     0.151480000000     0.976140000000     0.045026   
H319     H      0.722460000000     0.294380000000     0.066150000000     0.0412561  
H320     H      0.706560000000     0.362750000000     0.038570000000     0.0448157  
H321     H      0.894030000000     0.181990000000     0.060460000000     0.0237997  
H322     H      0.715970000000     0.412890000000     0.934570000000     0.0642334  
H323     H      0.661890000000     0.425780000000     0.928490000000     0.0809967  
H324     H      0.678740000000     0.372680000000     0.921990000000     0.0726859  
H325     H      0.222690000000     0.782630000000     0.961140000000     0.0386334  
H326     H      0.364800000000     0.736140000000     0.023200000000     0.0323144  
H327     H      0.271500000000     0.643170000000     0.025680000000     0.0367301  
H328     H      0.179330000000     0.895630000000     0.061290000000     0.0187851  
H329     H      0.397130000000     0.681230000000     0.985630000000     0.0331769  
H330     H      0.142590000000     0.772470000000     0.030500000000     0.035112   
H331     H      0.236840000000     0.864520000000     0.025140000000     0.0356507  
H332     H      0.088590000000     0.826550000000     0.014090000000     0.0298113  
H333     H      0.327630000000     0.588430000000     0.035570000000     0.0139997  
H334     H      0.276560000000     0.728780000000     0.955920000000     0.0412531  
H335     H      0.419450000000     0.680610000000     0.036690000000     0.0347568  
H336     H      0.231230000000     0.778140000000     0.095120000000     0.0416578  
H337     H      0.356610000000     0.704710000000     0.068930000000     0.0357814  
H338     H      0.183320000000     0.919170000000     0.010580000000     0.0226601  
H339     H      0.151720000000     0.800300000000     0.982590000000     0.0450777  
H340     H      0.205660000000     0.853800000000     0.979640000000     0.0460537  
H341     H      0.285040000000     0.723980000000     0.089810000000     0.0387375  
H342     H      0.305400000000     0.651040000000     0.069340000000     0.0410517  
H343     H      0.113050000000     0.832390000000     0.063980000000     0.0255432  
H344     H      0.291320000000     0.598580000000     0.967890000000     0.0508403  
H345     H      0.344290000000     0.583020000000     0.959820000000     0.0504452  
H346     H      0.329730000000     0.636600000000     0.952300000000     0.0635016  
H347     H      0.229400000000     0.223840000000     0.074380000000     0.0374517  
H348     H      0.370500000000     0.269370000000     0.003940000000     0.0234961  
H349     H      0.275560000000     0.360690000000     0.006820000000     0.0278877  
H350     H      0.180050000000     0.109630000000     0.975970000000     0.0306281  
H351     H      0.404200000000     0.326420000000     0.037470000000     0.03204    
H352     H      0.146110000000     0.236310000000     0.011870000000     0.0316492  
H353     H      0.237640000000     0.141660000000     0.009770000000     0.0318446  
H354     H      0.091800000000     0.181700000000     0.031140000000     0.0289013  
H355     H      0.329300000000     0.415900000000     0.990480000000     0.02161    
H356     H      0.285010000000     0.276250000000     0.076200000000     0.0405716  
H357     H      0.423030000000     0.325390000000     0.985000000000     0.0430386  
H358     H      0.230920000000     0.227000000000     0.940120000000     0.0420843  
H359     H      0.358200000000     0.299310000000     0.958130000000     0.0300868  
H360     H      0.182140000000     0.088750000000     0.027540000000     0.0305594  
H361     H      0.157040000000     0.206210000000     0.057900000000     0.0347533  
H362     H      0.208560000000     0.152240000000     0.056580000000     0.0350227  
H363     H      0.286520000000     0.279450000000     0.941970000000     0.0373122  
H364     H      0.305520000000     0.351990000000     0.960580000000     0.0336042  
H365     H      0.110240000000     0.180860000000     0.978570000000     0.0309084  
H366     H      0.299760000000     0.407210000000     0.061440000000     0.0466434  
H367     H      0.352980000000     0.423820000000     0.064050000000     0.0480872  
H368     H      0.340150000000     0.370260000000     0.074450000000     0.061067   
H369     H      0.718200000000     0.945370000000     0.725540000000     0.0363342  
H370     H      0.862660000000     0.993540000000     0.778100000000     0.046134   
H371     H      0.771320000000     0.988130000000     0.873330000000     0.0410066  
H372     H      0.678700000000     0.060700000000     0.624790000000     0.0232237  
H373     H      0.893250000000     0.952440000000     0.833040000000     0.0247806  
H374     H      0.640430000000     0.015600000000     0.743830000000     0.0347818  
H375     H      0.735470000000     0.020060000000     0.652360000000     0.0357473  
H376     H      0.586470000000     0.008510000000     0.687970000000     0.0303486  
H377     H      0.827500000000     0.997850000000     0.927290000000     0.0217122  
H378     H      0.771790000000     0.931240000000     0.778240000000     0.0443031  
H379     H      0.918740000000     0.001990000000     0.831250000000     0.0277449  
H380     H      0.731880000000     0.077040000000     0.747000000000     0.0404379  
H381     H      0.855300000000     0.037660000000     0.812000000000     0.0426443  
H382     H      0.682230000000     0.013090000000     0.595890000000     0.025972   
H383     H      0.648400000000     0.971490000000     0.710030000000     0.043005   
H384     H      0.703590000000     0.974100000000     0.656870000000     0.0452938  
H385     H      0.785310000000     0.062940000000     0.799770000000     0.0424309  
H386     H      0.802460000000     0.034110000000     0.867470000000     0.0368115  
H387     H      0.613020000000     0.057610000000     0.687910000000     0.0282504  
H388     H      0.797760000000     0.928660000000     0.915710000000     0.0608113  
H389     H      0.852610000000     0.923900000000     0.925860000000     0.0780158  
H390     H      0.833450000000     0.918570000000     0.873400000000     0.0703401  
H391     H      0.216890000000     0.947120000000     0.783220000000     0.0369094  
H392     H      0.271990000000     0.998310000000     0.638520000000     0.0453387  
H393     H      0.362700000000     0.994480000000     0.734360000000     0.0509203  
H394     H      0.112750000000     0.057830000000     0.826660000000     0.0278848  
H395     H      0.328390000000     0.957910000000     0.610110000000     0.0234968  
H396     H      0.235230000000     0.018240000000     0.860810000000     0.0360246  
H397     H      0.140520000000     0.018670000000     0.768930000000     0.0349705  
H398     H      0.181680000000     0.008600000000     0.916650000000     0.0269157  
H399     H      0.419120000000     0.004330000000     0.680720000000     0.0064949  
H400     H      0.270370000000     0.934940000000     0.729960000000     0.0441896  
H401     H      0.328050000000     0.007670000000     0.584970000000     0.0238656  
H402     H      0.234130000000     0.079480000000     0.770180000000     0.0401873  
H403     H      0.304990000000     0.042770000000     0.647530000000     0.0411231  
H404     H      0.086330000000     0.008750000000     0.824340000000     0.0318839  
H405     H      0.203210000000     0.972690000000     0.853890000000     0.0462099  
H406     H      0.148220000000     0.972920000000     0.800490000000     0.0452799  
H407     H      0.287750000000     0.067270000000     0.717040000000     0.0411364  
H408     H      0.357720000000     0.040050000000     0.702460000000     0.0447837  
H409     H      0.178620000000     0.057690000000     0.890310000000     0.0241996  
H410     H      0.406790000000     0.935320000000     0.710880000000     0.0622324  
H411     H      0.420050000000     0.930030000000     0.656740000000     0.0775976  
H412     H      0.366700000000     0.924230000000     0.672970000000     0.0721184  
H413     H      0.292670000000     0.954810000000     0.272470000000     0.0374738  
H414     H      0.147720000000     0.020050000000     0.234430000000     0.0314383  
H415     H      0.240010000000     0.030220000000     0.141050000000     0.0373733  
H416     H      0.327390000000     0.037870000000     0.402060000000     0.0311094  
H417     H      0.114170000000     0.985860000000     0.178840000000     0.0250698  
H418     H      0.369840000000     0.028290000000     0.271980000000     0.034763   
H419     H      0.275550000000     0.005270000000     0.361090000000     0.0233502  
H420     H      0.424130000000     0.006710000000     0.325490000000     0.021257   
H421     H      0.182700000000     0.041040000000     0.087110000000     0.0120786  
H422     H      0.238650000000     0.953950000000     0.218480000000     0.0402801  
H423     H      0.092550000000     0.036960000000     0.179350000000     0.0272409  
H424     H      0.278960000000     0.087750000000     0.283980000000     0.0407753  
H425     H      0.154970000000     0.067560000000     0.205670000000     0.0346039  
H426     H      0.331580000000     0.983750000000     0.412940000000     0.038105   
H427     H      0.363260000000     0.977180000000     0.293920000000     0.0426486  
H428     H      0.309810000000     0.964120000000     0.344620000000     0.0313717  
H429     H      0.225330000000     0.086880000000     0.229190000000     0.0376909  
H430     H      0.204730000000     0.072050000000     0.151610000000     0.040046   
H431     H      0.399610000000     0.055900000000     0.333880000000     0.0202038  
H432     H      0.222450000000     0.974660000000     0.093730000000     0.0534159  
H433     H      0.169990000000     0.965810000000     0.077260000000     0.0696899  
H434     H      0.184320000000     0.955270000000     0.130410000000     0.0638006  
H435     H      0.794030000000     0.955050000000     0.232860000000     0.0374028  
H436     H      0.741870000000     0.020850000000     0.374560000000     0.0328843  
H437     H      0.652000000000     0.007700000000     0.278890000000     0.0372034  
H438     H      0.900340000000     0.059070000000     0.181370000000     0.0233532  
H439     H      0.688000000000     0.980990000000     0.407070000000     0.0289617  
H440     H      0.775510000000     0.021560000000     0.151160000000     0.0346027  
H441     H      0.872010000000     0.024070000000     0.241130000000     0.0363827  
H442     H      0.827840000000     0.006760000000     0.095080000000     0.0266764  
H443     H      0.594870000000     0.018490000000     0.332020000000     0.0112992  
H444     H      0.741630000000     0.947990000000     0.287980000000     0.0405812  
H445     H      0.684260000000     0.032950000000     0.426810000000     0.0301382  
H446     H      0.780160000000     0.088430000000     0.236780000000     0.0424408  
H447     H      0.707130000000     0.063100000000     0.362080000000     0.0353312  
H448     H      0.924580000000     0.008980000000     0.185330000000     0.0230731  
H449     H      0.806450000000     0.975610000000     0.160150000000     0.0419113  
H450     H      0.862190000000     0.977050000000     0.212100000000     0.0436708  
H451     H      0.727290000000     0.081270000000     0.291620000000     0.0379942  
H452     H      0.655550000000     0.054910000000     0.308390000000     0.0389867  
H453     H      0.832140000000     0.057490000000     0.117960000000     0.0275993  
H454     H      0.610000000000     0.948720000000     0.304190000000     0.0542429  
H455     H      0.596140000000     0.945020000000     0.358300000000     0.0670411  
H456     H      0.649840000000     0.940440000000     0.343110000000     0.064863   
H457     H      0.078530000000     0.217350000000     0.785980000000     0.0389726  
H458     H      0.028530000000     0.272550000000     0.642450000000     0.0355549  
H459     H      0.032170000000     0.363920000000     0.737770000000     0.0418321  
H460     H      0.965880000000     0.114450000000     0.826190000000     0.0270865  
H461     H      0.068320000000     0.329590000000     0.614230000000     0.0207043  
H462     H      0.008120000000     0.236260000000     0.863030000000     0.033012   
H463     H      0.006730000000     0.142510000000     0.770260000000     0.0346956  
H464     H      0.016050000000     0.181780000000     0.918350000000     0.0295559  
H465     H      0.021470000000     0.419890000000     0.684050000000     0.0139214  
H466     H      0.091270000000     0.271110000000     0.733210000000     0.0408995  
H467     H      0.018740000000     0.327640000000     0.588670000000     0.0255565  
H468     H      0.946200000000     0.235910000000     0.773030000000     0.0428943  
H469     H      0.983630000000     0.305110000000     0.651280000000     0.0459962  
H470     H      0.014930000000     0.087780000000     0.825550000000     0.0247677  
H471     H      0.052750000000     0.202840000000     0.856330000000     0.0378329  
H472     H      0.051970000000     0.148920000000     0.802930000000     0.0392942  
H473     H      0.958900000000     0.289700000000     0.720410000000     0.0382927  
H474     H      0.986180000000     0.358460000000     0.706420000000     0.0506483  
H475     H      0.966720000000     0.181370000000     0.892160000000     0.0333283  
H476     H      0.091030000000     0.408160000000     0.712650000000     0.0594217  
H477     H      0.095330000000     0.420090000000     0.658040000000     0.0735056  
H478     H      0.101410000000     0.367240000000     0.675540000000     0.0701332  
H479     H      0.934940000000     0.784070000000     0.789990000000     0.0366116  
H480     H      0.989690000000     0.735960000000     0.644980000000     0.0457784  
H481     H      0.997890000000     0.643680000000     0.738830000000     0.0521091  
H482     H      0.039330000000     0.897230000000     0.830930000000     0.0383957  
H483     H      0.954680000000     0.677080000000     0.615200000000     0.0228472  
H484     H      0.002960000000     0.772680000000     0.868750000000     0.0240587  
H485     H      0.001790000000     0.865340000000     0.775090000000     0.0241226  
H486     H      0.988610000000     0.828210000000     0.923050000000     0.0467281  
H487     H      0.011480000000     0.589530000000     0.683430000000     0.00784061 
H488     H      0.927750000000     0.730430000000     0.735950000000     0.0439996  
H489     H      0.004210000000     0.681840000000     0.590110000000     0.0245474  
H490     H      0.068440000000     0.778480000000     0.777670000000     0.0409973  
H491     H      0.037440000000     0.707550000000     0.652460000000     0.0420142  
H492     H      0.988420000000     0.919940000000     0.829990000000     0.048038   
H493     H      0.956860000000     0.803320000000     0.859950000000     0.0322417  
H494     H      0.956290000000     0.856420000000     0.806650000000     0.0321434  
H495     H      0.061230000000     0.725070000000     0.723420000000     0.0420092  
H496     H      0.041490000000     0.653860000000     0.705470000000     0.0472948  
H497     H      0.039540000000     0.829110000000     0.900450000000     0.0357444  
H498     H      0.942750000000     0.594740000000     0.717010000000     0.0641095  
H499     H      0.937160000000     0.581030000000     0.663030000000     0.0789166  
H500     H      0.926110000000     0.633400000000     0.679590000000     0.0709415  
H501     H      0.073130000000     0.722140000000     0.288990000000     0.0367593  
H502     H      0.016490000000     0.773760000000     0.146820000000     0.0351558  
H503     H      0.025340000000     0.867920000000     0.238940000000     0.0419304  
H504     H      0.963160000000     0.617790000000     0.332040000000     0.0167537  
H505     H      0.056430000000     0.828560000000     0.115140000000     0.0244178  
H506     H      0.004400000000     0.739730000000     0.368530000000     0.0359469  
H507     H      0.001690000000     0.646870000000     0.274870000000     0.036005   
H508     H      0.014330000000     0.685020000000     0.423110000000     0.0226583  
H509     H      0.013690000000     0.922380000000     0.183620000000     0.00645894 
H510     H      0.083790000000     0.775170000000     0.235050000000     0.041106   
H511     H      0.005760000000     0.827560000000     0.091680000000     0.0283506  
H512     H      0.940350000000     0.739970000000     0.280340000000     0.0410905  
H513     H      0.972760000000     0.807690000000     0.156300000000     0.0437341  
H514     H      0.012450000000     0.591710000000     0.329160000000     0.0140657  
H515     H      0.049390000000     0.707170000000     0.360210000000     0.038312   
H516     H      0.047890000000     0.653680000000     0.306080000000     0.0397221  
H517     H      0.951040000000     0.793310000000     0.226740000000     0.037997   
H518     H      0.978280000000     0.862250000000     0.209280000000     0.0494083  
H519     H      0.964620000000     0.683440000000     0.397740000000     0.0209872  
H520     H      0.083910000000     0.911000000000     0.210760000000     0.0576848  
H521     H      0.086960000000     0.920440000000     0.155560000000     0.0682046  
H522     H      0.092700000000     0.868330000000     0.175170000000     0.0691039  
H523     H      0.084500000000     0.232670000000     0.218240000000     0.0373718  
H524     H      0.008470000000     0.366730000000     0.274070000000     0.0338205  
H525     H      0.034520000000     0.274730000000     0.364700000000     0.0408429  
H526     H      0.981250000000     0.181360000000     0.110450000000     0.031091   
H527     H      0.047180000000     0.405180000000     0.323550000000     0.0202979  
H528     H      0.023120000000     0.145830000000     0.235680000000     0.031717   
H529     H      0.015440000000     0.238670000000     0.142560000000     0.0319485  
H530     H      0.038220000000     0.092270000000     0.179760000000     0.0273655  
H531     H      0.023720000000     0.328570000000     0.421550000000     0.0116124  
H532     H      0.089380000000     0.286870000000     0.271940000000     0.0393299  
H533     H      0.994140000000     0.418550000000     0.332180000000     0.0326909  
H534     H      0.951810000000     0.226010000000     0.237210000000     0.0425825  
H535     H      0.969640000000     0.351390000000     0.311470000000     0.0430056  
H536     H      0.032080000000     0.183730000000     0.087860000000     0.0290402  
H537     H      0.067310000000     0.157260000000     0.203110000000     0.0350755  
H538     H      0.063050000000     0.210170000000     0.150360000000     0.0346988  
H539     H      0.956890000000     0.279590000000     0.291660000000     0.0379558  
H540     H      0.985230000000     0.300820000000     0.363710000000     0.0492995  
H541     H      0.986110000000     0.111790000000     0.181090000000     0.0306057  
H542     H      0.093550000000     0.304850000000     0.404190000000     0.056772   
H543     H      0.095470000000     0.360010000000     0.413650000000     0.0600537  
H544     H      0.097310000000     0.340580000000     0.361070000000     0.0647035  
N1       N      0.530440000000     0.130460000000     0.382020000000    -0.246832   
N2       N      0.531510000000     0.192370000000     0.319570000000    -0.108549   
N3       N      0.490740000000     0.314720000000     0.197520000000    -0.112148   
N4       N      0.493520000000     0.377280000000     0.135740000000    -0.2123     
N5       N      0.514810000000     0.877380000000     0.379870000000    -0.233929   
N6       N      0.517490000000     0.815830000000     0.316730000000    -0.108611   
N7       N      0.481790000000     0.692300000000     0.193770000000    -0.112343   
N8       N      0.485570000000     0.629820000000     0.131670000000    -0.205895   
N9       N      0.503250000000     0.881160000000     0.632570000000    -0.212815   
N10      N      0.507250000000     0.818690000000     0.694130000000    -0.108956   
N11      N      0.479940000000     0.694110000000     0.817720000000    -0.111877   
N12      N      0.488730000000     0.631980000000     0.879380000000    -0.211826   
N13      N      0.501960000000     0.133000000000     0.634760000000    -0.226535   
N14      N      0.489920000000     0.194730000000     0.696120000000    -0.108447   
N15      N      0.502270000000     0.318610000000     0.822730000000    -0.111581   
N16      N      0.493420000000     0.380360000000     0.884110000000    -0.208565   
N17      N      0.881750000000     0.377370000000     0.503100000000    -0.232623   
N18      N      0.820120000000     0.314620000000     0.507280000000    -0.10826    
N19      N      0.696160000000     0.190490000000     0.478210000000    -0.111466   
N20      N      0.633210000000     0.129300000000     0.486130000000    -0.23347    
N21      N      0.881620000000     0.629730000000     0.507890000000    -0.217031   
N22      N      0.819850000000     0.691440000000     0.501030000000    -0.109243   
N23      N      0.693640000000     0.815010000000     0.517470000000    -0.111071   
N24      N      0.632640000000     0.877160000000     0.507120000000    -0.224193   
N25      N      0.382500000000     0.134190000000     0.485040000000    -0.236382   
N26      N      0.322530000000     0.197450000000     0.475470000000    -0.108678   
N27      N      0.198310000000     0.321420000000     0.499170000000    -0.110842   
N28      N      0.135710000000     0.382190000000     0.493630000000    -0.237547   
N29      N      0.133170000000     0.634650000000     0.491180000000    -0.235785   
N30      N      0.194690000000     0.697260000000     0.485900000000    -0.108411   
N31      N      0.317720000000     0.820310000000     0.520720000000    -0.112234   
N32      N      0.380390000000     0.881690000000     0.515340000000    -0.207499   
N33      N      0.632470000000     0.501390000000     0.132540000000    -0.212699   
N34      N      0.694490000000     0.491440000000     0.193590000000    -0.109102   
N35      N      0.818480000000     0.509490000000     0.318770000000    -0.111466   
N36      N      0.880580000000     0.502580000000     0.379690000000    -0.225295   
N37      N      0.136150000000     0.488880000000     0.382990000000    -0.246587   
N38      N      0.199040000000     0.489970000000     0.321120000000    -0.108696   
N39      N      0.317970000000     0.533040000000     0.196010000000    -0.112217   
N40      N      0.380030000000     0.530630000000     0.133390000000    -0.216493   
N41      N      0.383630000000     0.473370000000     0.880780000000    -0.228717   
N42      N      0.322250000000     0.467770000000     0.817850000000    -0.109153   
N43      N      0.198030000000     0.505920000000     0.696770000000    -0.111605   
N44      N      0.135560000000     0.504560000000     0.634970000000    -0.21758    
N45      N      0.882660000000     0.508940000000     0.630870000000    -0.212806   
N46      N      0.820770000000     0.512160000000     0.693460000000    -0.10834    
N47      N      0.691850000000     0.508910000000     0.818110000000    -0.110581   
N48      N      0.632120000000     0.502620000000     0.882710000000    -0.201873   
N49      N      0.879060000000     0.880410000000     0.011070000000    -0.217231   
N50      N      0.816900000000     0.818750000000     0.018480000000    -0.106702   
N51      N      0.691610000000     0.694660000000     0.997340000000    -0.099969   
N52      N      0.630280000000     0.632350000000     0.006070000000    -0.203894   
N53      N      0.632700000000     0.381700000000     0.994030000000    -0.210404   
N54      N      0.694940000000     0.319580000000     0.989310000000    -0.100499   
N55      N      0.816540000000     0.195060000000     0.024960000000    -0.107624   
N56      N      0.878140000000     0.132420000000     0.020210000000    -0.224758   
N57      N      0.378030000000     0.630080000000     0.022450000000    -0.224011   
N58      N      0.316360000000     0.691370000000     0.017590000000    -0.110044   
N59      N      0.192080000000     0.816370000000     0.033130000000    -0.108597   
N60      N      0.131220000000     0.878000000000     0.020240000000    -0.22611    
N61      N      0.381670000000     0.375620000000     0.999940000000    -0.216727   
N62      N      0.321540000000     0.313170000000     0.012020000000    -0.119059   
N63      N      0.193620000000     0.190800000000     0.004370000000    -0.111659   
N64      N      0.131460000000     0.130500000000     0.015240000000    -0.233097   
N65      N      0.877870000000     0.991730000000     0.883680000000    -0.214302   
N66      N      0.814420000000     0.986210000000     0.822930000000    -0.106618   
N67      N      0.690570000000     0.022240000000     0.701030000000    -0.108126   
N68      N      0.629890000000     0.018540000000     0.637700000000    -0.218076   
N69      N      0.378260000000     0.996900000000     0.628240000000    -0.211502   
N70      N      0.314570000000     0.991370000000     0.688790000000    -0.100467   
N71      N      0.190590000000     0.022990000000     0.812080000000    -0.107975   
N72      N      0.129520000000     0.016600000000     0.875130000000    -0.21692    
N73      N      0.133350000000     0.023300000000     0.128150000000    -0.24366    
N74      N      0.195740000000     0.017760000000     0.188910000000    -0.109186   
N75      N      0.320160000000     0.023130000000     0.315490000000    -0.114779   
N76      N      0.381290000000     0.009530000000     0.376740000000    -0.222591   
N77      N      0.635690000000     0.014200000000     0.384750000000    -0.24556    
N78      N      0.699470000000     0.008120000000     0.325280000000    -0.109399   
N79      N      0.821480000000     0.027990000000     0.198480000000    -0.108193   
N80      N      0.880790000000     0.016620000000     0.135040000000    -0.227713   
N81      N      0.027710000000     0.378370000000     0.631930000000    -0.230283   
N82      N      0.035050000000     0.315590000000     0.692390000000    -0.105757   
N83      N      0.002300000000     0.191830000000     0.814220000000    -0.111202   
N84      N      0.005470000000     0.130650000000     0.876240000000    -0.222405   
N85      N      0.997510000000     0.630080000000     0.632240000000    -0.210152   
N86      N      0.988100000000     0.691920000000     0.694390000000    -0.100054   
N87      N      0.008130000000     0.816710000000     0.819550000000    -0.120971   
N88      N      0.001040000000     0.878880000000     0.881280000000    -0.195278   
N89      N      0.018260000000     0.879250000000     0.132720000000    -0.237079   
N90      N      0.026020000000     0.818270000000     0.194960000000    -0.105831   
N91      N      0.998000000000     0.695790000000     0.319360000000    -0.0976275  
N92      N      0.004480000000     0.633950000000     0.380670000000    -0.237926   
N93      N      0.022340000000     0.380480000000     0.379520000000    -0.244564   
N94      N      0.028010000000     0.319780000000     0.316450000000    -0.105768   
N95      N      0.013120000000     0.194140000000     0.191520000000    -0.111479   
N96      N      0.021230000000     0.132640000000     0.129410000000    -0.234798   
O1       O      0.015920000000     0.113990000000     0.059560000000    -1.05255    
O2       O      0.010340000000     0.895990000000     0.062820000000    -0.792657   
O3       O      0.950070000000     0.008880000000     0.115060000000    -1.02109    
O4       O      0.063310000000     0.016240000000     0.111370000000    -1.07836    
O5       O      0.113920000000     0.017830000000     0.058410000000    -1.04315    
O6       O      0.896390000000     0.010400000000     0.064580000000    -0.790596   
O7       O      0.010410000000     0.948910000000     0.114080000000    -1.0187     
O8       O      0.016540000000     0.062640000000     0.111840000000    -1.07292    
O9       O      0.051340000000     0.966260000000     0.049640000000    -2.08108    
O10      O      0.966320000000     0.051050000000     0.050570000000    -2.08761    
O11      O      0.961340000000     0.961120000000     0.054430000000    -0.864256   
O12      O      0.014400000000     0.014580000000     0.013720000000    -2.57066    
O13      O      0.001820000000     0.897710000000     0.951680000000    -0.70794    
O14      O      0.006960000000     0.113230000000     0.946580000000    -0.942158   
O15      O      0.897210000000     0.950570000000     0.008830000000    -0.739663   
O16      O      0.113850000000     0.947890000000     0.010160000000    -0.942854   
O17      O      0.112960000000     0.060920000000     0.011800000000    -1.04843    
O18      O      0.895940000000     0.062280000000     0.013970000000    -0.763611   
O19      O      0.948060000000     0.001550000000     0.899320000000    -0.593954   
O20      O      0.059880000000     0.009800000000     0.894420000000    -0.625947   
O21      O      0.897100000000     0.000070000000     0.953290000000    -0.722294   
O22      O      0.112790000000     0.009810000000     0.945560000000    -0.930464   
O23      O      0.949630000000     0.897910000000     0.007630000000    -0.732232   
O24      O      0.947900000000     0.114230000000     0.011360000000    -0.944706   
O25      O      0.061240000000     0.112990000000     0.012330000000    -1.0514     
O26      O      0.061550000000     0.896270000000     0.013110000000    -0.767903   
O27      O      0.003230000000     0.949340000000     0.898380000000    -0.58476    
O28      O      0.005520000000     0.060830000000     0.894940000000    -0.634494   
O29      O      0.048790000000     0.049560000000     0.964360000000    -1.97331    
O30      O      0.966560000000     0.967270000000     0.968440000000    -1.57894    
O31      O      0.958370000000     0.048300000000     0.960850000000    -1.22593    
O32      O      0.047910000000     0.959310000000     0.959880000000    -1.24049    
O33      O      0.019490000000     0.398180000000     0.449980000000    -1.0401     
O34      O      0.008480000000     0.615900000000     0.450590000000    -0.786828   
O35      O      0.950750000000     0.505360000000     0.398060000000    -0.996686   
O36      O      0.065600000000     0.496110000000     0.399830000000    -1.06141    
O37      O      0.116990000000     0.497470000000     0.452070000000    -1.08721    
O38      O      0.898490000000     0.500600000000     0.449870000000    -0.805571   
O39      O      0.007880000000     0.563780000000     0.398460000000    -1.00947    
O40      O      0.015460000000     0.450020000000     0.398380000000    -1.06718    
O41      O      0.053090000000     0.546300000000     0.461660000000    -2.09432    
O42      O      0.969030000000     0.460070000000     0.461470000000    -2.07915    
O43      O      0.962980000000     0.549860000000     0.459510000000    -0.867858   
O44      O      0.017540000000     0.496880000000     0.497770000000    -2.57343    
O45      O      0.003530000000     0.612410000000     0.561820000000    -0.705195   
O46      O      0.016940000000     0.396810000000     0.562710000000    -0.939163   
O47      O      0.900190000000     0.559470000000     0.507110000000    -0.748913   
O48      O      0.116360000000     0.564670000000     0.500430000000    -0.973994   
O49      O      0.116760000000     0.451750000000     0.497880000000    -1.07426    
O50      O      0.899640000000     0.447650000000     0.501580000000    -0.78885    
O51      O      0.952940000000     0.502170000000     0.613840000000    -0.579982   
O52      O      0.065280000000     0.503540000000     0.616940000000    -0.625006   
O53      O      0.901290000000     0.509060000000     0.560870000000    -0.735054   
O54      O      0.117070000000     0.504520000000     0.564650000000    -0.951112   
O55      O      0.952110000000     0.612610000000     0.508360000000    -0.728379   
O56      O      0.952120000000     0.396170000000     0.503210000000    -0.93401    
O57      O      0.065580000000     0.399190000000     0.496300000000    -1.0533     
O58      O      0.063500000000     0.615660000000     0.498940000000    -0.765249   
O59      O      0.005650000000     0.560090000000     0.614430000000    -0.58717    
O60      O      0.016710000000     0.448020000000     0.615530000000    -0.626173   
O61      O      0.053700000000     0.461850000000     0.545800000000    -2.00215    
O62      O      0.970250000000     0.542510000000     0.545120000000    -1.59858    
O63      O      0.963670000000     0.461170000000     0.551620000000    -1.25203    
O64      O      0.051230000000     0.551950000000     0.552030000000    -1.23793    
O65      O      0.615810000000     0.013660000000     0.454240000000    -1.03685    
O66      O      0.397470000000     0.007000000000     0.447310000000    -0.788509   
O67      O      0.509330000000     0.947430000000     0.398380000000    -1.00721    
O68      O      0.520410000000     0.060940000000     0.399880000000    -1.06748    
O69      O      0.519160000000     0.113070000000     0.451320000000    -1.06663    
O70      O      0.511180000000     0.895250000000     0.450350000000    -0.801466   
O71      O      0.451250000000     0.007760000000     0.396840000000    -0.999168   
O72      O      0.565350000000     0.011950000000     0.401080000000    -1.0715     
O73      O      0.468320000000     0.050870000000     0.460570000000    -2.08963    
O74      O      0.552650000000     0.965250000000     0.463570000000    -2.0732     
O75      O      0.462550000000     0.960540000000     0.458570000000    -0.867418   
O76      O      0.515660000000     0.014600000000     0.498430000000    -2.56637    
O77      O      0.397870000000     0.003830000000     0.558480000000    -0.710654   
O78      O      0.613600000000     0.011970000000     0.567160000000    -0.924042   
O79      O      0.450720000000     0.898570000000     0.508810000000    -0.756594   
O80      O      0.450940000000     0.115140000000     0.498370000000    -0.976209   
O81      O      0.563460000000     0.112720000000     0.497260000000    -1.05469    
O82      O      0.562670000000     0.895930000000     0.503290000000    -0.787223   
O83      O      0.504200000000     0.951490000000     0.614570000000    -0.584589   
O84      O      0.505530000000     0.063000000000     0.616680000000    -0.634801   
O85      O      0.502650000000     0.899010000000     0.562100000000    -0.729503   
O86      O      0.507630000000     0.114730000000     0.564430000000    -0.941236   
O87      O      0.398510000000     0.951440000000     0.507220000000    -0.72842    
O88      O      0.614910000000     0.947560000000     0.507350000000    -0.929944   
O89      O      0.614670000000     0.060280000000     0.497260000000    -1.03478    
O90      O      0.398560000000     0.063730000000     0.493940000000    -0.756501   
O91      O      0.448750000000     0.004070000000     0.612560000000    -0.592647   
O92      O      0.560450000000     0.011750000000     0.618040000000    -0.629032   
O93      O      0.550390000000     0.050690000000     0.547500000000    -1.99138    
O94      O      0.467780000000     0.968600000000     0.544130000000    -1.60185    
O95      O      0.548590000000     0.960450000000     0.553390000000    -1.26322    
O96      O      0.459670000000     0.049770000000     0.550250000000    -1.23538    
O97      O      0.451250000000     0.395390000000     0.001340000000    -0.813592   
O98      O      0.447830000000     0.612520000000     0.017370000000    -0.815919   
O99      O      0.397690000000     0.518610000000     0.064270000000    -0.950921   
O100     O      0.399330000000     0.486090000000     0.950400000000    -0.9413     
O101     O      0.450770000000     0.492590000000     0.899090000000    -0.840803   
O102     O      0.449150000000     0.517380000000     0.116020000000    -0.834672   
O103     O      0.396700000000     0.560490000000     0.018530000000    -0.954689   
O104     O      0.398540000000     0.445690000000     0.997960000000    -0.939661   
O105     O      0.455050000000     0.547780000000     0.963050000000    -1.68858    
O106     O      0.456490000000     0.460800000000     0.052280000000    -1.69304    
O107     O      0.494350000000     0.512570000000     0.015660000000    -1.9619     
O108     O      0.494230000000     0.497030000000     0.999730000000    -0.0991659  
O109     O      0.560130000000     0.612950000000     0.005370000000    -0.716879   
O110     O      0.562610000000     0.398880000000     0.002930000000    -0.716739   
O111     O      0.495000000000     0.560210000000     0.114220000000    -0.794304   
O112     O      0.496290000000     0.562100000000     0.897600000000    -0.797551   
O113     O      0.497260000000     0.450290000000     0.901700000000    -0.789227   
O114     O      0.499980000000     0.447240000000     0.117490000000    -0.802582   
O115     O      0.614140000000     0.507690000000     0.062800000000    -0.600475   
O116     O      0.614030000000     0.506320000000     0.952530000000    -0.588084   
O117     O      0.562030000000     0.502790000000     0.114730000000    -0.749364   
O118     O      0.561850000000     0.500250000000     0.900650000000    -0.733817   
O119     O      0.492440000000     0.611570000000     0.061780000000    -0.76646    
O120     O      0.500070000000     0.395690000000     0.065920000000    -0.775016   
O121     O      0.496180000000     0.398740000000     0.954140000000    -0.766263   
O122     O      0.498210000000     0.613830000000     0.948970000000    -0.770823   
O123     O      0.613230000000     0.562090000000     0.009900000000    -0.591904   
O124     O      0.614310000000     0.451390000000     0.002280000000    -0.591782   
O125     O      0.543680000000     0.463500000000     0.965820000000    -1.54627    
O126     O      0.542750000000     0.548330000000     0.050140000000    -1.48505    
O127     O      0.551430000000     0.462120000000     0.055770000000    -1.22342    
O128     O      0.549940000000     0.553580000000     0.963490000000    -1.17998    
Tb1      Tb     0.006210000000     0.005700000000     0.075950000000     6.38602    
Tb2      Tb     0.006610000000     0.935920000000     0.008710000000     4.2856     
Tb3      Tb     0.004460000000     0.076240000000     0.004090000000     6.25609    
Tb4      Tb     0.935570000000     0.006900000000     0.009630000000     4.29725    
Tb5      Tb     0.076030000000     0.004800000000     0.003300000000     6.20004    
Tb6      Tb     0.005760000000     0.006640000000     0.935520000000     3.13756    
Tb7      Tb     0.007990000000     0.506380000000     0.435840000000     6.27912    
Tb8      Tb     0.008950000000     0.575170000000     0.504330000000     4.25182    
Tb9      Tb     0.008850000000     0.434880000000     0.506610000000     6.18898    
Tb10     Tb     0.938920000000     0.503170000000     0.504020000000     4.44416    
Tb11     Tb     0.079260000000     0.507610000000     0.507320000000     6.46521    
Tb12     Tb     0.010610000000     0.503250000000     0.576600000000     3.11404    
Tb13     Tb     0.507670000000     0.004620000000     0.436230000000     6.30289    
Tb14     Tb     0.436960000000     0.007590000000     0.502160000000     4.26583    
Tb15     Tb     0.577260000000     0.004840000000     0.509380000000     6.11982    
Tb16     Tb     0.507720000000     0.936050000000     0.504620000000     4.45335    
Tb17     Tb     0.506390000000     0.076600000000     0.507080000000     6.38125    
Tb18     Tb     0.506700000000     0.008370000000     0.576660000000     3.14331    
Tb19     Tb     0.432390000000     0.503730000000     0.007490000000     5.39291    
Tb20     Tb     0.502520000000     0.575040000000     0.004970000000     4.20201    
Tb21     Tb     0.505010000000     0.435400000000     0.010930000000     4.32075    
Tb22     Tb     0.503680000000     0.503040000000     0.078170000000     4.44891    
Tb23     Tb     0.504120000000     0.507530000000     0.937700000000     4.57664    
Tb24     Tb     0.574590000000     0.506410000000     0.007800000000     2.99863    


