data_structure

_audit_creation_method RASPA-1.0
_audit_creation_date 2023-5-25
_audit_author_name 'Poobodin Mano'

_cell_length_a    32.0502
_cell_length_b    32.0895
_cell_length_c    32.1962
_cell_angle_alpha 90
_cell_angle_beta  90
_cell_angle_gamma 90
_cell_volume      33113

_symmetry_cell_setting          triclinic
_symmetry_space_group_name_Hall 'P 1'
_symmetry_space_group_name_H-M  'P 1'
_symmetry_Int_Tables_number     1

_symmetry_equiv_pos_as_xyz 'x,y,z'

loop_
_atom_site_label
_atom_site_type_symbol
_atom_site_fract_x
_atom_site_fract_y
_atom_site_fract_z
_atom_site_charge
C1       C      0.010340000000     0.107100000000     0.093960000000     0.708486   
C2       C      0.009960000000     0.913490000000     0.105530000000     0.667882   
C3       C      0.902160000000     0.005540000000     0.093910000000     0.651173   
C4       C      0.097060000000     0.018710000000     0.102080000000     0.744285   
C5       C      0.010900000000     0.904390000000     0.914090000000     0.546758   
C6       C      0.010490000000     0.096600000000     0.900630000000     0.63604    
C7       C      0.914930000000     0.906060000000     0.007710000000     0.58267    
C8       C      0.108470000000     0.916080000000     0.022970000000     0.68673    
C9       C      0.097670000000     0.105350000000     0.014090000000     0.721192   
C10      C      0.904680000000     0.098600000000     0.000730000000     0.67382    
C11      C      0.914130000000     0.994410000000     0.906030000000     0.560632   
C12      C      0.105680000000     0.009060000000     0.908530000000     0.639999   
C13      C      0.021000000000     0.417700000000     0.401890000000     0.709995   
C14      C      0.006020000000     0.610280000000     0.415270000000     0.669817   
C15      C      0.903740000000     0.510210000000     0.410140000000     0.657054   
C16      C      0.100300000000     0.503440000000     0.408990000000     0.726756   
C17      C      0.995810000000     0.594060000000     0.605700000000     0.556347   
C18      C      0.016160000000     0.402470000000     0.594110000000     0.637367   
C19      C      0.905320000000     0.597230000000     0.506000000000     0.588766   
C20      C      0.096850000000     0.607430000000     0.502950000000     0.686093   
C21      C      0.104100000000     0.415180000000     0.487460000000     0.717867   
C22      C      0.911480000000     0.405120000000     0.486900000000     0.681878   
C23      C      0.907930000000     0.496660000000     0.598130000000     0.565713   
C24      C      0.100220000000     0.495080000000     0.601830000000     0.650301   
C25      C      0.602690000000     0.012250000000     0.408730000000     0.717262   
C26      C      0.406590000000     0.008560000000     0.407080000000     0.657455   
C27      C      0.500250000000     0.906750000000     0.408580000000     0.680003   
C28      C      0.518120000000     0.100250000000     0.405550000000     0.719159   
C29      C      0.411080000000     0.011060000000     0.598160000000     0.568816   
C30      C      0.603390000000     0.006800000000     0.600290000000     0.637836   
C31      C      0.405100000000     0.915800000000     0.507040000000     0.590053   
C32      C      0.414340000000     0.108500000000     0.492870000000     0.685581   
C33      C      0.606410000000     0.095410000000     0.487690000000     0.711946   
C34      C      0.597040000000     0.902590000000     0.496640000000     0.673641   
C35      C      0.498060000000     0.912480000000     0.600000000000     0.560177   
C36      C      0.514090000000     0.103300000000     0.598990000000     0.646776   
C37      C      0.409260000000     0.412780000000     0.018690000000     0.72649    
C38      C      0.602200000000     0.409910000000     0.008160000000     0.680788   
C39      C      0.498600000000     0.411750000000     0.906760000000     0.680031   
C40      C      0.495760000000     0.412560000000     0.100400000000     0.735592   
C41      C      0.601790000000     0.602670000000     0.001190000000     0.550003   
C42      C      0.409670000000     0.606470000000     0.011250000000     0.643615   
C43      C      0.598620000000     0.507880000000     0.905780000000     0.58087    
C44      C      0.606000000000     0.496660000000     0.097210000000     0.693678   
C45      C      0.411420000000     0.499560000000     0.101760000000     0.727295   
C46      C      0.406520000000     0.502530000000     0.909050000000     0.687279   
C47      C      0.509560000000     0.603170000000     0.909110000000     0.557392   
C48      C      0.505810000000     0.605020000000     0.100680000000     0.66206    
C49      C      0.520970000000     0.206440000000     0.356370000000    -0.0447079  
C50      C      0.490730000000     0.307190000000     0.150730000000    -0.0445139  
C51      C      0.502800000000     0.394230000000     0.174310000000     0.0390388  
C52      C      0.474670000000     0.341530000000     0.121600000000     0.0309658  
C53      C      0.466560000000     0.279380000000     0.253500000000    -0.0545806  
C54      C      0.541510000000     0.234900000000     0.254070000000    -0.0544906  
C55      C      0.497200000000     0.288550000000     0.223720000000     0.0595839  
C56      C      0.517950000000     0.357070000000     0.199920000000    -0.0475656  
C57      C      0.510830000000     0.225650000000     0.283710000000     0.0595541  
C58      C      0.489300000000     0.157470000000     0.309060000000    -0.0561244  
C59      C      0.473190000000     0.248240000000     0.283300000000    -0.0566648  
C60      C      0.507270000000     0.119580000000     0.331860000000     0.0707344  
C61      C      0.538740000000     0.171440000000     0.383880000000     0.0296798  
C62      C      0.534950000000     0.266090000000     0.224390000000    -0.0567306  
C63      C      0.505200000000     0.803230000000     0.358370000000    -0.0437557  
C64      C      0.497100000000     0.707990000000     0.152360000000    -0.040392   
C65      C      0.516870000000     0.621940000000     0.174020000000     0.0367889  
C66      C      0.513130000000     0.678930000000     0.118610000000     0.0201778  
C67      C      0.541350000000     0.745250000000     0.242690000000    -0.0554698  
C68      C      0.460300000000     0.764970000000     0.268370000000    -0.0553303  
C69      C      0.507140000000     0.725720000000     0.224160000000     0.061977   
C70      C      0.500430000000     0.653810000000     0.204790000000    -0.046263   
C71      C      0.494520000000     0.784500000000     0.286890000000     0.0616862  
C72      C      0.500690000000     0.856720000000     0.305130000000    -0.0556106  
C73      C      0.535240000000     0.774560000000     0.273890000000    -0.057074   
C74      C      0.484970000000     0.889140000000     0.335950000000     0.0683536  
C75      C      0.489750000000     0.832820000000     0.391920000000     0.0273702  
C76      C      0.466420000000     0.735670000000     0.237140000000    -0.0573362  
C77      C      0.510860000000     0.861780000000     0.703910000000    -0.0389664  
C78      C      0.503210000000     0.654920000000     0.805200000000    -0.0398222  
C79      C      0.523020000000     0.676840000000     0.890860000000     0.011994   
C80      C      0.519170000000     0.621100000000     0.834950000000     0.0176764  
C81      C      0.546020000000     0.744680000000     0.763610000000    -0.0540811  
C82      C      0.465060000000     0.772440000000     0.747040000000    -0.0538983  
C83      C      0.512470000000     0.727360000000     0.785660000000     0.0599364  
C84      C      0.506970000000     0.708010000000     0.858480000000    -0.0377677  
C85      C      0.498630000000     0.789990000000     0.725250000000     0.0598641  
C86      C      0.499580000000     0.808460000000     0.651960000000    -0.0505197  
C87      C      0.539300000000     0.775590000000     0.733580000000    -0.0562312  
C88      C      0.481350000000     0.839920000000     0.620840000000     0.0564678  
C89      C      0.494300000000     0.896160000000     0.675080000000     0.0132551  
C90      C      0.471750000000     0.741370000000     0.776870000000    -0.0563147  
C91      C      0.523980000000     0.318480000000     0.845950000000    -0.0474694  
C92      C      0.488660000000     0.154780000000     0.699220000000    -0.0411605  
C93      C      0.527320000000     0.175490000000     0.619810000000     0.0328499  
C94      C      0.479760000000     0.127640000000     0.661550000000     0.0221451  
C95      C      0.499390000000     0.270610000000     0.709960000000    -0.053872   
C96      C      0.493700000000     0.246760000000     0.792970000000    -0.0542391  
C97      C      0.499710000000     0.228010000000     0.719920000000     0.0595672  
C98      C      0.536280000000     0.198440000000     0.660400000000    -0.0451919  
C99      C      0.494300000000     0.289320000000     0.783110000000     0.0597665  
C100     C      0.479710000000     0.362360000000     0.803610000000    -0.0524306  
C101     C      0.498290000000     0.300920000000     0.740980000000    -0.0553413  
C102     C      0.467180000000     0.389100000000     0.841080000000     0.0589968  
C103     C      0.510210000000     0.339430000000     0.886010000000     0.0368714  
C104     C      0.498070000000     0.216570000000     0.762280000000    -0.054999   
C105     C      0.809870000000     0.349800000000     0.481950000000    -0.0438307  
C106     C      0.713040000000     0.141920000000     0.470240000000    -0.0465327  
C107     C      0.627020000000     0.168750000000     0.484100000000     0.0369457  
C108     C      0.681660000000     0.109940000000     0.486610000000     0.0339727  
C109     C      0.751760000000     0.232790000000     0.514500000000    -0.0549231  
C110     C      0.777340000000     0.257690000000     0.435250000000    -0.0547404  
C111     C      0.734170000000     0.213910000000     0.479450000000     0.0605236  
C112     C      0.661700000000     0.196740000000     0.467660000000    -0.0475184  
C113     C      0.794440000000     0.277060000000     0.470340000000     0.0601512  
C114     C      0.865770000000     0.298770000000     0.481190000000    -0.0551956  
C115     C      0.781730000000     0.264030000000     0.510140000000    -0.0566171  
C116     C      0.898170000000     0.331630000000     0.468770000000     0.0666854  
C117     C      0.839300000000     0.385010000000     0.469210000000     0.026315   
C118     C      0.747440000000     0.226270000000     0.439630000000    -0.0569775  
C119     C      0.843040000000     0.694160000000     0.512810000000    -0.0427703  
C120     C      0.645190000000     0.799410000000     0.470290000000    -0.041959   
C121     C      0.668840000000     0.878500000000     0.508520000000     0.0307564  
C122     C      0.610940000000     0.827500000000     0.488320000000     0.0235957  
C123     C      0.719800000000     0.741710000000     0.515930000000    -0.054621   
C124     C      0.773050000000     0.744950000000     0.447210000000    -0.0543191  
C125     C      0.714490000000     0.773220000000     0.486360000000     0.06048    
C126     C      0.699740000000     0.847710000000     0.489590000000    -0.0442464  
C127     C      0.779820000000     0.714870000000     0.478070000000     0.0597007  
C128     C      0.805820000000     0.644640000000     0.468580000000    -0.0484308  
C129     C      0.751770000000     0.712470000000     0.511730000000    -0.0561482  
C130     C      0.845210000000     0.617420000000     0.464210000000     0.0464089  
C131     C      0.883820000000     0.670340000000     0.507870000000     0.0233907  
C132     C      0.740300000000     0.773610000000     0.450910000000    -0.0566845  
C133     C      0.367280000000     0.214780000000     0.499170000000    -0.0468298  
C134     C      0.160840000000     0.312810000000     0.476660000000    -0.0471     
C135     C      0.179330000000     0.401370000000     0.486890000000     0.0369315  
C136     C      0.125710000000     0.341930000000     0.490490000000     0.0364595  
C137     C      0.250230000000     0.279370000000     0.523470000000    -0.0545991  
C138     C      0.280610000000     0.256100000000     0.445450000000    -0.0547244  
C139     C      0.233830000000     0.298070000000     0.487690000000     0.0604212  
C140     C      0.210980000000     0.368660000000     0.472980000000    -0.0470547  
C141     C      0.297160000000     0.237550000000     0.481220000000     0.0603497  
C142     C      0.312690000000     0.164020000000     0.486850000000    -0.0526424  
C143     C      0.281480000000     0.249140000000     0.520390000000    -0.0566212  
C144     C      0.343840000000     0.131150000000     0.471830000000     0.0610977  
C145     C      0.401440000000     0.184000000000     0.486190000000     0.0347145  
C146     C      0.249050000000     0.285960000000     0.448490000000    -0.0568347  
C147     C      0.347480000000     0.815660000000     0.493400000000    -0.0415714  
C148     C      0.143770000000     0.713470000000     0.510500000000    -0.0428584  
C149     C      0.169190000000     0.628970000000     0.488630000000     0.0340891  
C150     C      0.110870000000     0.682520000000     0.495370000000     0.0257307  
C151     C      0.229350000000     0.758970000000     0.463710000000    -0.0548334  
C152     C      0.260410000000     0.776110000000     0.543050000000    -0.0545502  
C153     C      0.214430000000     0.736400000000     0.497860000000     0.0605604  
C154     C      0.199260000000     0.662720000000     0.503670000000    -0.045661   
C155     C      0.275920000000     0.798090000000     0.508800000000     0.060537   
C156     C      0.297250000000     0.870590000000     0.505010000000    -0.051074   
C157     C      0.259780000000     0.789700000000     0.469010000000    -0.0566891  
C158     C      0.330760000000     0.900910000000     0.520840000000     0.0564926  
C159     C      0.383740000000     0.842210000000     0.508910000000     0.0208084  
C160     C      0.229810000000     0.745580000000     0.537790000000    -0.0567508  
C161     C      0.810480000000     0.482000000000     0.350430000000    -0.0431874  
C162     C      0.708400000000     0.507380000000     0.148060000000    -0.0429536  
C163     C      0.626330000000     0.473240000000     0.167350000000     0.0337471  
C164     C      0.681010000000     0.490310000000     0.113120000000     0.0264797  
C165     C      0.760160000000     0.464780000000     0.228630000000    -0.0548387  
C166     C      0.756190000000     0.539520000000     0.273040000000    -0.0548678  
C167     C      0.729520000000     0.494270000000     0.218690000000     0.0605596  
C168     C      0.656190000000     0.490230000000     0.200170000000    -0.0452488  
C169     C      0.785440000000     0.509180000000     0.284310000000     0.0609968  
C170     C      0.853580000000     0.530260000000     0.310280000000    -0.0508989  
C171     C      0.788400000000     0.472310000000     0.260830000000    -0.0568999  
C172     C      0.873900000000     0.547570000000     0.349850000000     0.061944   
C173     C      0.831050000000     0.495790000000     0.390970000000     0.0273563  
C174     C      0.728770000000     0.532510000000     0.240130000000    -0.0567619  
C175     C      0.309720000000     0.519510000000     0.156420000000    -0.0476553  
C176     C      0.205090000000     0.491910000000     0.357840000000    -0.0471149  
C177     C      0.118840000000     0.510470000000     0.335190000000     0.0351736  
C178     C      0.174960000000     0.506320000000     0.391740000000     0.0361226  
C179     C      0.248030000000     0.541560000000     0.274030000000    -0.0548942  
C180     C      0.266360000000     0.463830000000     0.239370000000    -0.0547564  
C181     C      0.225670000000     0.506350000000     0.287080000000     0.0598762  
C182     C      0.152480000000     0.496470000000     0.304450000000    -0.0468469  
C183     C      0.288170000000     0.499150000000     0.225800000000     0.0597874  
C184     C      0.361790000000     0.501700000000     0.207420000000    -0.0547346  
C185     C      0.279210000000     0.538100000000     0.243800000000    -0.0567998  
C186     C      0.392220000000     0.484530000000     0.174770000000     0.0662906  
C187     C      0.337210000000     0.505340000000     0.120230000000     0.0380931  
C188     C      0.235520000000     0.467220000000     0.269910000000    -0.0568476  
C189     C      0.150290000000     0.495860000000     0.705500000000    -0.0412512  
C190     C      0.354520000000     0.488820000000     0.806130000000    -0.0426527  
C191     C      0.331920000000     0.506980000000     0.892120000000     0.0341538  
C192     C      0.387960000000     0.505720000000     0.835240000000     0.026413   
C193     C      0.264550000000     0.532440000000     0.767190000000    -0.055007   
C194     C      0.239920000000     0.451760000000     0.745280000000    -0.0546871  
C195     C      0.282400000000     0.498150000000     0.787290000000     0.0612563  
C196     C      0.301590000000     0.490250000000     0.859570000000    -0.0454779  
C197     C      0.222110000000     0.486080000000     0.725130000000     0.0607878  
C198     C      0.204250000000     0.494090000000     0.652620000000    -0.0545333  
C199     C      0.234600000000     0.526610000000     0.736320000000    -0.0567337  
C200     C      0.173510000000     0.479280000000     0.619310000000     0.0659039  
C201     C      0.117090000000     0.480840000000     0.675070000000     0.0204917  
C202     C      0.269900000000     0.457600000000     0.776170000000    -0.0570365  
C203     C      0.646160000000     0.498600000000     0.799560000000    -0.0412277  
C204     C      0.854670000000     0.498520000000     0.701510000000    -0.0378624  
C205     C      0.833110000000     0.488980000000     0.614030000000     0.0188226  
C206     C      0.888010000000     0.483320000000     0.670990000000     0.0128719  
C207     C      0.759920000000     0.458270000000     0.735220000000    -0.0545085  
C208     C      0.740250000000     0.538730000000     0.762160000000    -0.0541951  
C209     C      0.781340000000     0.492450000000     0.718460000000     0.0605098  
C210     C      0.802680000000     0.504150000000     0.647310000000    -0.0398166  
C211     C      0.718960000000     0.504560000000     0.779020000000     0.0605154  
C212     C      0.700550000000     0.494320000000     0.851320000000    -0.0512994  
C213     C      0.728980000000     0.464140000000     0.765310000000    -0.0565989  
C214     C      0.672780000000     0.512840000000     0.885300000000     0.0573515  
C215     C      0.614460000000     0.515590000000     0.831040000000     0.0190769  
C216     C      0.771170000000     0.532880000000     0.732130000000    -0.0564786  
C217     C      0.859520000000     0.805200000000     0.998070000000    -0.0293905  
C218     C      0.654830000000     0.704660000000     0.021420000000    -0.0367487  
C219     C      0.675640000000     0.621980000000     0.989910000000     0.0264763  
C220     C      0.620210000000     0.677450000000     0.002740000000     0.00595571 
C221     C      0.737780000000     0.753440000000     0.978550000000    -0.0485733  
C222     C      0.779910000000     0.756040000000     0.054550000000    -0.0536101  
C223     C      0.726830000000     0.725230000000     0.009860000000     0.0541553  
C224     C      0.707150000000     0.651680000000     0.009800000000    -0.0519531  
C225     C      0.791740000000     0.783440000000     0.022700000000     0.0533445  
C226     C      0.812810000000     0.855350000000     0.031030000000    -0.0488301  
C227     C      0.769610000000     0.782510000000     0.984860000000    -0.050262   
C228     C      0.849450000000     0.884980000000     0.040500000000     0.0491019  
C229     C      0.897830000000     0.831400000000     0.008600000000     0.00707773 
C230     C      0.747460000000     0.727380000000     0.048450000000    -0.0561258  
C231     C      0.704210000000     0.355150000000     0.004970000000    -0.0513101  
C232     C      0.799420000000     0.146710000000     0.012500000000    -0.0543174  
C233     C      0.884100000000     0.171510000000     0.990190000000     0.05062    
C234     C      0.829530000000     0.113730000000     0.995910000000     0.038269   
C235     C      0.759010000000     0.237430000000     0.968550000000    -0.0477483  
C236     C      0.739720000000     0.263340000000     0.049260000000    -0.0549199  
C237     C      0.778630000000     0.218500000000     0.002450000000     0.050316   
C238     C      0.851510000000     0.201180000000     0.007650000000    -0.0652555  
C239     C      0.720360000000     0.282520000000     0.015320000000     0.0548045  
C240     C      0.648660000000     0.303860000000     0.008750000000    -0.0634146  
C241     C      0.730040000000     0.269200000000     0.974780000000    -0.0516269  
C242     C      0.617010000000     0.336290000000     0.023440000000     0.0696314  
C243     C      0.675550000000     0.390120000000     0.019750000000     0.0277012  
C244     C      0.768740000000     0.231540000000     0.043020000000    -0.0545679  
C245     C      0.206870000000     0.860770000000     0.008900000000    -0.0518108  
C246     C      0.308920000000     0.659070000000     0.035600000000    -0.0432671  
C247     C      0.390170000000     0.679690000000     0.000020000000     0.00988658 
C248     C      0.335350000000     0.624240000000     0.016870000000     0.0254408  
C249     C      0.255650000000     0.738310000000     0.993120000000    -0.0330779  
C250     C      0.259190000000     0.784390000000     0.066750000000    -0.0608836  
C251     C      0.286720000000     0.729610000000     0.022430000000     0.0485348  
C252     C      0.360340000000     0.711650000000     0.018760000000    -0.03757    
C253     C      0.229430000000     0.794390000000     0.036530000000     0.068369   
C254     C      0.159620000000     0.819180000000     0.051990000000    -0.0507701  
C255     C      0.226820000000     0.770100000000     0.000220000000    -0.0779788  
C256     C      0.135890000000     0.858310000000     0.065850000000     0.0612637  
C257     C      0.183490000000     0.900720000000     0.019890000000     0.0326707  
C258     C      0.287350000000     0.751860000000     0.060130000000    -0.0504685  
C259     C      0.356510000000     0.309330000000     0.010040000000    -0.0554449  
C260     C      0.147390000000     0.211410000000     0.025720000000    -0.0445989  
C261     C      0.171690000000     0.124640000000     0.013010000000     0.0294204  
C262     C      0.114200000000     0.180250000000     0.011050000000     0.0261619  
C263     C      0.237890000000     0.249620000000     0.980390000000    -0.0488371  
C264     C      0.265500000000     0.272600000000     0.059470000000    -0.0540366  
C265     C      0.219800000000     0.231080000000     0.015500000000     0.0536429  
C266     C      0.201220000000     0.158980000000     0.027650000000    -0.0454139  
C267     C      0.284090000000     0.290540000000     0.024370000000     0.0536122  
C268     C      0.304610000000     0.363320000000     0.019560000000    -0.0617156  
C269     C      0.269610000000     0.279330000000     0.984650000000    -0.050902   
C270     C      0.336620000000     0.393740000000     0.037780000000     0.0683044  
C271     C      0.391730000000     0.337910000000     0.025460000000     0.0388961  
C272     C      0.233540000000     0.243250000000     0.055240000000    -0.0560901  
C273     C      0.656320000000     0.012220000000     0.704360000000    -0.0606148  
C274     C      0.863560000000     0.986310000000     0.800640000000    -0.0347887  
C275     C      0.840090000000     0.997540000000     0.887600000000     0.0298541  
C276     C      0.897490000000     0.998630000000     0.831720000000     0.0232644  
C277     C      0.774470000000     0.037400000000     0.766090000000    -0.0459207  
C278     C      0.745790000000     0.960260000000     0.737540000000    -0.0631486  
C279     C      0.791800000000     0.000660000000     0.782040000000     0.0446897  
C280     C      0.809960000000     0.984980000000     0.853150000000    -0.0370207  
C281     C      0.728270000000     0.996980000000     0.721810000000     0.0760553  
C282     C      0.708810000000     0.011030000000     0.650580000000    -0.0842805  
C283     C      0.743000000000     0.035720000000     0.736120000000    -0.0725843  
C284     C      0.677640000000     0.997480000000     0.617210000000     0.0911068  
C285     C      0.621550000000     0.999910000000     0.674180000000     0.046159   
C286     C      0.777340000000     0.961930000000     0.767420000000    -0.0405312  
C287     C      0.361340000000     0.005650000000     0.702790000000    -0.0512619  
C288     C      0.158410000000     0.016330000000     0.805240000000    -0.0367738  
C289     C      0.180670000000     0.005670000000     0.892560000000     0.0206522  
C290     C      0.125250000000     0.000720000000     0.835380000000     0.00675975 
C291     C      0.248130000000     0.972730000000     0.767960000000    -0.0459666  
C292     C      0.272520000000     0.052410000000     0.742500000000    -0.053194   
C293     C      0.230770000000     0.007810000000     0.787190000000     0.0520437  
C294     C      0.210980000000     0.020380000000     0.858890000000    -0.0420156  
C295     C      0.289970000000     0.017310000000     0.723370000000     0.0508726  
C296     C      0.306930000000     0.007540000000     0.650720000000    -0.0621702  
C297     C      0.277460000000     0.977290000000     0.736240000000    -0.0474684  
C298     C      0.337220000000     0.021930000000     0.616720000000     0.0587549  
C299     C      0.394510000000     0.020210000000     0.672120000000     0.019328   
C300     C      0.243030000000     0.047850000000     0.774100000000    -0.0560851  
C301     C      0.152950000000     0.029880000000     0.202220000000    -0.0527373  
C302     C      0.353450000000     0.990420000000     0.304740000000    -0.0258375  
C303     C      0.331980000000     0.013970000000     0.389740000000    -0.00271508 
C304     C      0.387630000000     0.008600000000     0.332750000000     0.00808307 
C305     C      0.274540000000     0.033610000000     0.255920000000    -0.046356   
C306     C      0.223190000000     0.963190000000     0.255510000000    -0.0634481  
C307     C      0.281150000000     0.002190000000     0.285350000000     0.045026   
C308     C      0.301220000000     0.995680000000     0.358500000000    -0.0117737  
C309     C      0.215330000000     0.995640000000     0.227420000000     0.0754464  
C310     C      0.192980000000     0.983530000000     0.156890000000    -0.0428359  
C311     C      0.242480000000     0.030210000000     0.226780000000    -0.0726759  
C312     C      0.155150000000     0.977600000000     0.128090000000     0.0604652  
C313     C      0.113650000000     0.024020000000     0.176130000000     0.02937    
C314     C      0.256220000000     0.966000000000     0.283860000000    -0.0404644  
C315     C      0.810180000000     0.037290000000     0.154730000000    -0.0433594  
C316     C      0.705330000000     0.999400000000     0.355850000000    -0.0181299  
C317     C      0.622620000000     0.032310000000     0.337560000000     0.032009   
C318     C      0.677790000000     0.015170000000     0.391450000000     0.0124822  
C319     C      0.755840000000     0.046380000000     0.276680000000    -0.0537016  
C320     C      0.753200000000     0.974240000000     0.228170000000    -0.0461646  
C321     C      0.726060000000     0.015590000000     0.285380000000     0.0507719  
C322     C      0.652680000000     0.016100000000     0.304560000000    -0.0551671  
C323     C      0.781620000000     0.005870000000     0.218230000000     0.0510597  
C324     C      0.849080000000     0.983110000000     0.191670000000    -0.0342378  
C325     C      0.783910000000     0.041400000000     0.243780000000    -0.0559932  
C326     C      0.868660000000     0.967360000000     0.151130000000     0.0628691  
C327     C      0.830980000000     0.025400000000     0.113470000000     0.0257471  
C328     C      0.726020000000     0.978650000000     0.261790000000    -0.0480168  
C329     C      0.024690000000     0.141500000000     0.794390000000    -0.0376445  
C330     C      0.018320000000     0.345810000000     0.694020000000    -0.051528   
C331     C      0.032520000000     0.328300000000     0.606330000000     0.0332602  
C332     C      0.033340000000     0.380580000000     0.665440000000     0.0213032  
C333     C      0.061040000000     0.254760000000     0.729000000000    -0.0534668  
C334     C      0.980120000000     0.229970000000     0.750150000000    -0.0458569  
C335     C      0.026830000000     0.272870000000     0.708860000000     0.0509417  
C336     C      0.017970000000     0.295530000000     0.637620000000    -0.0558433  
C337     C      0.014300000000     0.212210000000     0.770600000000     0.051724   
C338     C      0.019970000000     0.197860000000     0.844040000000    -0.0526518  
C339     C      0.054970000000     0.224650000000     0.759720000000    -0.0560281  
C340     C      0.002560000000     0.169450000000     0.878060000000     0.056579   
C341     C      0.007940000000     0.109660000000     0.825440000000     0.00671024 
C342     C      0.986180000000     0.260120000000     0.719530000000    -0.0476281  
C343     C      0.998860000000     0.695930000000     0.661890000000    -0.0294499  
C344     C      0.999810000000     0.797210000000     0.868050000000    -0.0131129  
C345     C      0.017710000000     0.882140000000     0.840970000000     0.0127109  
C346     C      0.016620000000     0.828840000000     0.899740000000     0.00254322 
C347     C      0.041020000000     0.754690000000     0.776440000000    -0.0453601  
C348     C      0.959670000000     0.731550000000     0.755300000000    -0.0627033  
C349     C      0.007350000000     0.774240000000     0.796330000000     0.0447184  
C350     C      0.000580000000     0.847830000000     0.812550000000    -0.0482886  
C351     C      0.993350000000     0.712220000000     0.735200000000     0.0746032  
C352     C      0.002270000000     0.640270000000     0.712470000000    -0.0770375  
C353     C      0.034250000000     0.724030000000     0.746170000000    -0.0725668  
C354     C      0.986350000000     0.607780000000     0.680960000000     0.0726577  
C355     C      0.982390000000     0.666640000000     0.628020000000     0.0163829  
C356     C      0.966450000000     0.762280000000     0.785530000000    -0.0399181  
C357     C      0.019170000000     0.871180000000     0.213840000000    -0.0437197  
C358     C      0.008060000000     0.667090000000     0.314300000000    -0.0576369  
C359     C      0.014120000000     0.685440000000     0.402820000000     0.01679    
C360     C      0.021120000000     0.632470000000     0.343920000000     0.0377085  
C361     C      0.053460000000     0.759430000000     0.284640000000    -0.0535157  
C362     C      0.975170000000     0.781160000000     0.253030000000    -0.0460514  
C363     C      0.017550000000     0.740050000000     0.300180000000     0.051024   
C364     C      0.001350000000     0.717290000000     0.369970000000    -0.0511529  
C365     C      0.011110000000     0.799870000000     0.236920000000     0.051887   
C366     C      0.027520000000     0.814790000000     0.165000000000    -0.0507013  
C367     C      0.050400000000     0.789270000000     0.253240000000    -0.0560788  
C368     C      0.011050000000     0.840390000000     0.128520000000     0.0521818  
C369     C      0.003400000000     0.901100000000     0.180450000000     0.0232891  
C370     C      0.978200000000     0.751490000000     0.284490000000    -0.0477349  
C371     C      0.014710000000     0.370810000000     0.296090000000    -0.0584292  
C372     C      0.025770000000     0.163670000000     0.195460000000    -0.0430733  
C373     C      0.007430000000     0.182560000000     0.108650000000     0.0199196  
C374     C      0.008820000000     0.128910000000     0.167410000000     0.0206018  
C375     C      0.982770000000     0.253770000000     0.234090000000    -0.0457039  
C376     C      0.063150000000     0.282920000000     0.251030000000    -0.0532307  
C377     C      0.016700000000     0.236850000000     0.212300000000     0.0498691  
C378     C      0.024110000000     0.214360000000     0.140210000000    -0.0427759  
C379     C      0.029200000000     0.299960000000     0.272690000000     0.0488593  
C380     C      0.028290000000     0.316240000000     0.346360000000    -0.0661702  
C381     C      0.988830000000     0.284850000000     0.264100000000    -0.0471622  
C382     C      0.044230000000     0.347690000000     0.378750000000     0.0687606  
C383     C      0.029490000000     0.404900000000     0.326300000000     0.036665   
C384     C      0.057130000000     0.251590000000     0.221240000000    -0.0558481  
H1       H      0.976650000000     0.976440000000     0.035000000000    -1.21687    
H2       H      0.028860000000     0.032920000000     0.027780000000    -1.08353    
H3       H      0.967210000000     0.072210000000     0.961290000000    -0.529544   
H4       H      0.079310000000     0.968480000000     0.971140000000    -0.555213   
H5       H      0.973560000000     0.535850000000     0.475290000000    -1.22868    
H6       H      0.030160000000     0.483690000000     0.477540000000    -1.05789    
H7       H      0.969330000000     0.430640000000     0.535890000000    -0.496943   
H8       H      0.073140000000     0.543600000000     0.544630000000    -0.558337   
H9       H      0.474550000000     0.977700000000     0.472560000000    -1.23759    
H10      H      0.532140000000     0.028950000000     0.477740000000    -1.05968    
H11      H      0.574310000000     0.964400000000     0.540550000000    -0.502536   
H12      H      0.471790000000     0.078990000000     0.538330000000    -0.545518   
H13      H      0.534150000000     0.476180000000     0.973740000000    -1.25098    
H14      H      0.480810000000     0.483050000000     0.029750000000    -1.11037    
H15      H      0.434630000000     0.545680000000     0.968390000000    -0.547013   
H16      H      0.546160000000     0.543810000000     0.073450000000    -0.570774   
H17      H      0.559310000000     0.272700000000     0.202060000000     0.0394042  
H18      H      0.541880000000     0.234010000000     0.358900000000     0.0345983  
H19      H      0.484190000000     0.149490000000     0.275760000000     0.0394974  
H20      H      0.474460000000     0.407020000000     0.189200000000     0.0270078  
H21      H      0.572930000000     0.169420000000     0.378410000000     0.0187089  
H22      H      0.470490000000     0.279270000000     0.146910000000     0.0349587  
H23      H      0.518650000000     0.366500000000     0.233200000000     0.035769   
H24      H      0.480610000000     0.331900000000     0.088960000000     0.0305297  
H25      H      0.482970000000     0.094820000000     0.331930000000     0.0199086  
H26      H      0.570600000000     0.217740000000     0.253960000000     0.0422439  
H27      H      0.534450000000     0.180520000000     0.416900000000     0.0318328  
H28      H      0.437470000000     0.296540000000     0.253620000000     0.0429584  
H29      H      0.489610000000     0.215690000000     0.368100000000     0.0365497  
H30      H      0.527130000000     0.418940000000     0.175670000000     0.0267008  
H31      H      0.523010000000     0.298430000000     0.141350000000     0.0379243  
H32      H      0.550370000000     0.348900000000     0.190450000000     0.0382551  
H33      H      0.449000000000     0.241640000000     0.305820000000     0.039354   
H34      H      0.458300000000     0.165530000000     0.322520000000     0.0397941  
H35      H      0.440270000000     0.343980000000     0.125380000000     0.0194361  
H36      H      0.582340000000     0.128900000000     0.303000000000     0.0320133  
H37      H      0.439550000000     0.720800000000     0.223180000000     0.0390404  
H38      H      0.495590000000     0.770990000000     0.366860000000     0.0348976  
H39      H      0.488490000000     0.864160000000     0.273570000000     0.0397328  
H40      H      0.551150000000     0.618730000000     0.178300000000     0.0245036  
H41      H      0.456130000000     0.826620000000     0.397850000000     0.0239865  
H42      H      0.506810000000     0.740360000000     0.144510000000     0.0349344  
H43      H      0.512500000000     0.645710000000     0.236210000000     0.0351387  
H44      H      0.496060000000     0.686090000000     0.089380000000     0.0341045  
H45      H      0.499950000000     0.919240000000     0.327600000000     0.0220507  
H46      H      0.428890000000     0.772640000000     0.278150000000     0.0424232  
H47      H      0.507050000000     0.825790000000     0.421040000000     0.033832   
H48      H      0.572760000000     0.737660000000     0.232840000000     0.0431657  
H49      H      0.539920000000     0.804350000000     0.357270000000     0.0373444  
H50      H      0.502410000000     0.591340000000     0.181520000000     0.0263804  
H51      H      0.462360000000     0.706860000000     0.152940000000     0.0369572  
H52      H      0.465710000000     0.652170000000     0.205630000000     0.037555   
H53      H      0.562110000000     0.789520000000     0.287730000000     0.0391759  
H54      H      0.535380000000     0.858430000000     0.303700000000     0.0400719  
H55      H      0.546750000000     0.685520000000     0.113110000000     0.0292377  
H56      H      0.409460000000     0.859070000000     0.337210000000     0.0312685  
H57      H      0.445190000000     0.728400000000     0.793110000000     0.0402815  
H58      H      0.504440000000     0.871080000000     0.736600000000     0.0360757  
H59      H      0.485940000000     0.777110000000     0.645920000000     0.0395935  
H60      H      0.557370000000     0.680640000000     0.893880000000     0.0320957  
H61      H      0.461900000000     0.904120000000     0.684570000000     0.0321689  
H62      H      0.512910000000     0.646440000000     0.773100000000     0.0350396  
H63      H      0.519500000000     0.739390000000     0.866320000000     0.0360103  
H64      H      0.502500000000     0.591570000000     0.827790000000     0.0354399  
H65      H      0.492080000000     0.830730000000     0.589320000000     0.0295412  
H66      H      0.433560000000     0.782920000000     0.740800000000     0.0432319  
H67      H      0.513700000000     0.924470000000     0.679920000000     0.0386488  
H68      H      0.577520000000     0.734150000000     0.769780000000     0.0436182  
H69      H      0.545290000000     0.859210000000     0.700020000000     0.0381286  
H70      H      0.508960000000     0.684980000000     0.921370000000     0.0384439  
H71      H      0.468470000000     0.655590000000     0.806150000000     0.0383697  
H72      H      0.472300000000     0.709470000000     0.860310000000     0.0384464  
H73      H      0.565760000000     0.788270000000     0.716950000000     0.0401369  
H74      H      0.533900000000     0.805990000000     0.647040000000     0.0406504  
H75      H      0.552900000000     0.615800000000     0.828780000000     0.0304096  
H76      H      0.410270000000     0.846070000000     0.659790000000     0.0347375  
H77      H      0.498580000000     0.184460000000     0.772330000000     0.0382965  
H78      H      0.533640000000     0.286180000000     0.853860000000     0.0336218  
H79      H      0.453860000000     0.362900000000     0.780520000000     0.0385137  
H80      H      0.503850000000     0.193400000000     0.601670000000     0.0269997  
H81      H      0.484980000000     0.320660000000     0.900590000000     0.023787   
H82      H      0.460160000000     0.154280000000     0.718970000000     0.0344833  
H83      H      0.545690000000     0.230770000000     0.652350000000     0.0336604  
H84      H      0.477980000000     0.094620000000     0.671920000000     0.0349397  
H85      H      0.468440000000     0.422260000000     0.831160000000     0.0301844  
H86      H      0.489870000000     0.236760000000     0.824870000000     0.040556   
H87      H      0.537130000000     0.340190000000     0.907850000000     0.021229   
H88      H      0.499750000000     0.280550000000     0.677830000000     0.0407023  
H89      H      0.551730000000     0.334740000000     0.832810000000     0.0385472  
H90      H      0.556430000000     0.173720000000     0.601040000000     0.0229503  
H91      H      0.515110000000     0.140940000000     0.716960000000     0.0376709  
H92      H      0.562980000000     0.183540000000     0.676860000000     0.0400138  
H93      H      0.499190000000     0.333140000000     0.731290000000     0.0384119  
H94      H      0.507680000000     0.376690000000     0.788820000000     0.0385824  
H95      H      0.448460000000     0.135970000000     0.649090000000     0.0278026  
H96      H      0.409860000000     0.337860000000     0.866620000000     0.031831   
H97      H      0.734280000000     0.212080000000     0.412090000000     0.039146   
H98      H      0.778130000000     0.357150000000     0.469960000000     0.0352847  
H99      H      0.875640000000     0.267760000000     0.469150000000     0.0399433  
H100     H      0.620320000000     0.177470000000     0.516880000000     0.0227664  
H101     H      0.835720000000     0.390660000000     0.435320000000     0.0253882  
H102     H      0.744660000000     0.133120000000     0.481580000000     0.0351573  
H103     H      0.654580000000     0.229440000000     0.476820000000     0.0353652  
H104     H      0.686610000000     0.079990000000     0.469970000000     0.028995   
H105     H      0.927180000000     0.324410000000     0.486300000000     0.0240433  
H106     H      0.786990000000     0.267270000000     0.404460000000     0.0423688  
H107     H      0.829440000000     0.413890000000     0.485570000000     0.0336554  
H108     H      0.741780000000     0.223550000000     0.545290000000     0.0429376  
H109     H      0.808250000000     0.348500000000     0.516480000000     0.038229   
H110     H      0.598250000000     0.175180000000     0.465870000000     0.029712   
H111     H      0.713520000000     0.140970000000     0.435650000000     0.0364043  
H112     H      0.662280000000     0.195250000000     0.433090000000     0.0362558  
H113     H      0.794630000000     0.278270000000     0.537770000000     0.0395405  
H114     H      0.864860000000     0.296620000000     0.515720000000     0.0406758  
H115     H      0.688350000000     0.104030000000     0.520000000000     0.0235387  
H116     H      0.875230000000     0.331960000000     0.391220000000     0.031174   
H117     H      0.736150000000     0.796870000000     0.426950000000     0.0395261  
H118     H      0.850540000000     0.727740000000     0.517270000000     0.0364194  
H119     H      0.786610000000     0.641630000000     0.439930000000     0.0392764  
H120     H      0.670000000000     0.875200000000     0.542860000000     0.026673   
H121     H      0.902510000000     0.684900000000     0.482620000000     0.0304801  
H122     H      0.634440000000     0.766480000000     0.472310000000     0.0347557  
H123     H      0.730130000000     0.851030000000     0.506010000000     0.0365525  
H124     H      0.583510000000     0.826600000000     0.467140000000     0.0329142  
H125     H      0.835060000000     0.584290000000     0.465210000000     0.0324515  
H126     H      0.793880000000     0.746810000000     0.420790000000     0.0425068  
H127     H      0.902020000000     0.672940000000     0.537210000000     0.0308763  
H128     H      0.699690000000     0.740500000000     0.542940000000     0.0432085  
H129     H      0.827110000000     0.682640000000     0.541310000000     0.0391752  
H130     H      0.679360000000     0.910610000000     0.500850000000     0.0310156  
H131     H      0.650290000000     0.807010000000     0.436910000000     0.0374632  
H132     H      0.704590000000     0.855740000000     0.456290000000     0.0375278  
H133     H      0.755480000000     0.689000000000     0.535560000000     0.0395728  
H134     H      0.786950000000     0.632330000000     0.494910000000     0.0406828  
H135     H      0.600830000000     0.814540000000     0.518730000000     0.0283795  
H136     H      0.875040000000     0.666530000000     0.405310000000     0.0237111  
H137     H      0.236440000000     0.299410000000     0.420340000000     0.0391564  
H138     H      0.378140000000     0.246920000000     0.491930000000     0.0356016  
H139     H      0.281920000000     0.158480000000     0.471700000000     0.0394052  
H140     H      0.186200000000     0.410160000000     0.519540000000     0.0266017  
H141     H      0.411910000000     0.191810000000     0.454190000000     0.0224822  
H142     H      0.154400000000     0.281220000000     0.489450000000     0.0356605  
H143     H      0.242630000000     0.379120000000     0.482710000000     0.0358122  
H144     H      0.096740000000     0.333170000000     0.473600000000     0.0313473  
H145     H      0.332760000000     0.100290000000     0.483000000000     0.0282294  
H146     H      0.291980000000     0.246980000000     0.415100000000     0.0423297  
H147     H      0.428640000000     0.188420000000     0.507190000000     0.0273348  
H148     H      0.238450000000     0.288030000000     0.553790000000     0.0437634  
H149     H      0.362450000000     0.212480000000     0.533340000000     0.0388373  
H150     H      0.183750000000     0.429810000000     0.467700000000     0.0285256  
H151     H      0.161060000000     0.310350000000     0.442170000000     0.0393612  
H152     H      0.210600000000     0.366520000000     0.438450000000     0.0367304  
H153     H      0.293170000000     0.234680000000     0.548440000000     0.0400825  
H154     H      0.308120000000     0.160710000000     0.521000000000     0.0413872  
H155     H      0.119570000000     0.336600000000     0.524080000000     0.0233424  
H156     H      0.355330000000     0.167650000000     0.400320000000     0.0325099  
H157     H      0.218570000000     0.728820000000     0.564730000000     0.0394087  
H158     H      0.355020000000     0.782340000000     0.499510000000     0.035335   
H159     H      0.266640000000     0.878510000000     0.519370000000     0.0397141  
H160     H      0.171980000000     0.626160000000     0.454310000000     0.023329   
H161     H      0.391720000000     0.832010000000     0.540770000000     0.0336407  
H162     H      0.133420000000     0.745450000000     0.501890000000     0.0351347  
H163     H      0.230490000000     0.656610000000     0.489790000000     0.035541   
H164     H      0.081690000000     0.687920000000     0.513270000000     0.0310523  
H165     H      0.323760000000     0.932000000000     0.507280000000     0.030232   
H166     H      0.272530000000     0.782360000000     0.573830000000     0.0430961  
H167     H      0.411260000000     0.835760000000     0.488860000000     0.0330746  
H168     H      0.217620000000     0.752370000000     0.432860000000     0.0432067  
H169     H      0.344110000000     0.819800000000     0.459210000000     0.0362162  
H170     H      0.179120000000     0.598730000000     0.502290000000     0.0265736  
H171     H      0.146040000000     0.711810000000     0.544980000000     0.0375609  
H172     H      0.202270000000     0.660630000000     0.538070000000     0.0379025  
H173     H      0.271180000000     0.806370000000     0.442080000000     0.0391684  
H174     H      0.293770000000     0.874500000000     0.470800000000     0.0387271  
H175     H      0.104040000000     0.689120000000     0.462180000000     0.0276427  
H176     H      0.331540000000     0.868040000000     0.594650000000     0.0338439  
H177     H      0.706490000000     0.556520000000     0.232130000000     0.0394592  
H178     H      0.777800000000     0.472430000000     0.357200000000     0.0356902  
H179     H      0.852980000000     0.555050000000     0.286070000000     0.0372004  
H180     H      0.629140000000     0.438700000000     0.166680000000     0.0221038  
H181     H      0.810330000000     0.518470000000     0.406970000000     0.030401   
H182     H      0.741660000000     0.503330000000     0.138920000000     0.0349877  
H183     H      0.650640000000     0.473200000000     0.229790000000     0.0352535  
H184     H      0.686140000000     0.509730000000     0.084970000000     0.0310264  
H185     H      0.906510000000     0.557220000000     0.343040000000     0.0201098  
H186     H      0.754300000000     0.568440000000     0.290290000000     0.0431226  
H187     H      0.834240000000     0.468060000000     0.411490000000     0.0335008  
H188     H      0.761780000000     0.435670000000     0.211680000000     0.042787   
H189     H      0.827680000000     0.454510000000     0.338120000000     0.0367949  
H190     H      0.593860000000     0.480810000000     0.176830000000     0.0281389  
H191     H      0.702300000000     0.541330000000     0.152100000000     0.0386039  
H192     H      0.648890000000     0.523750000000     0.205260000000     0.0381172  
H193     H      0.811640000000     0.448960000000     0.268040000000     0.039477   
H194     H      0.872400000000     0.503800000000     0.298040000000     0.0403774  
H195     H      0.691090000000     0.457970000000     0.105830000000     0.0272773  
H196     H      0.835940000000     0.619070000000     0.334120000000     0.0272936  
H197     H      0.219250000000     0.439420000000     0.279890000000     0.0387324  
H198     H      0.276460000000     0.515660000000     0.147180000000     0.0354316  
H199     H      0.367500000000     0.486010000000     0.237760000000     0.0387665  
H200     H      0.113190000000     0.544390000000     0.330880000000     0.0218437  
H201     H      0.324130000000     0.476220000000     0.107360000000     0.0278371  
H202     H      0.237230000000     0.501350000000     0.367010000000     0.035223   
H203     H      0.144860000000     0.509600000000     0.273360000000     0.0348515  
H204     H      0.181140000000     0.487750000000     0.420200000000     0.0298565  
H205     H      0.424130000000     0.494890000000     0.183510000000     0.0246798  
H206     H      0.273200000000     0.433620000000     0.226030000000     0.0422316  
H207     H      0.334880000000     0.529170000000     0.095220000000     0.026212   
H208     H      0.241140000000     0.571790000000     0.287310000000     0.0428334  
H209     H      0.315250000000     0.553230000000     0.162490000000     0.0362506  
H210     H      0.089280000000     0.494090000000     0.327350000000     0.0267192  
H211     H      0.204330000000     0.457270000000     0.355560000000     0.0366416  
H212     H      0.151840000000     0.461850000000     0.301950000000     0.0360211  
H213     H      0.295980000000     0.565740000000     0.234210000000     0.0389565  
H214     H      0.367700000000     0.535600000000     0.212090000000     0.0388073  
H215     H      0.181830000000     0.539430000000     0.399380000000     0.0226339  
H216     H      0.353160000000     0.414020000000     0.187180000000     0.033619   
H217     H      0.283400000000     0.430630000000     0.791230000000     0.0399099  
H218     H      0.141530000000     0.485030000000     0.737180000000     0.0348803  
H219     H      0.236110000000     0.482500000000     0.645020000000     0.0395     
H220     H      0.325670000000     0.540740000000     0.896890000000     0.0253796  
H221     H      0.112120000000     0.446900000000     0.679820000000     0.0276328  
H222     H      0.362400000000     0.498620000000     0.773880000000     0.0354503  
H223     H      0.269630000000     0.501270000000     0.867540000000     0.0358176  
H224     H      0.417590000000     0.488960000000     0.828570000000     0.0348773  
H225     H      0.181830000000     0.495380000000     0.589880000000     0.0226489  
H226     H      0.230510000000     0.420450000000     0.736930000000     0.0430164  
H227     H      0.087330000000     0.496910000000     0.682750000000     0.0339892  
H228     H      0.274040000000     0.563760000000     0.775450000000     0.0435908  
H229     H      0.150770000000     0.530580000000     0.705620000000     0.0377443  
H230     H      0.325500000000     0.490920000000     0.922070000000     0.0269228  
H231     H      0.354710000000     0.454110000000     0.807220000000     0.0387161  
H232     H      0.301580000000     0.455540000000     0.860580000000     0.0381362  
H233     H      0.221230000000     0.553620000000     0.721240000000     0.0394353  
H234     H      0.205400000000     0.528780000000     0.652140000000     0.0400465  
H235     H      0.393200000000     0.539230000000     0.828110000000     0.027415   
H236     H      0.172340000000     0.402800000000     0.646450000000     0.0335169  
H237     H      0.787190000000     0.559830000000     0.719710000000     0.0400999  
H238     H      0.637900000000     0.510800000000     0.768250000000     0.0348467  
H239     H      0.733840000000     0.501530000000     0.858330000000     0.0402911  
H240     H      0.826600000000     0.455600000000     0.607390000000     0.0295341  
H241     H      0.610300000000     0.549530000000     0.825450000000     0.0292253  
H242     H      0.861630000000     0.485090000000     0.732630000000     0.0364009  
H243     H      0.770540000000     0.495090000000     0.637800000000     0.035117   
H244     H      0.918400000000     0.497390000000     0.679980000000     0.0398327  
H245     H      0.679930000000     0.496140000000     0.914720000000     0.0272171  
H246     H      0.732990000000     0.569980000000     0.772620000000     0.0433906  
H247     H      0.583890000000     0.500440000000     0.824870000000     0.0338047  
H248     H      0.767390000000     0.427000000000     0.724990000000     0.0433404  
H249     H      0.643940000000     0.463970000000     0.798530000000     0.0357592  
H250     H      0.826880000000     0.506800000000     0.585070000000     0.0367188  
H251     H      0.856440000000     0.533090000000     0.704040000000     0.0396033  
H252     H      0.804030000000     0.538790000000     0.649070000000     0.0384221  
H253     H      0.713140000000     0.437250000000     0.778080000000     0.0392831  
H254     H      0.697230000000     0.459760000000     0.851270000000     0.038624   
H255     H      0.891200000000     0.448960000000     0.674190000000     0.0328223  
H256     H      0.675840000000     0.589110000000     0.858120000000     0.0345977  
H257     H      0.738990000000     0.706560000000     0.073500000000     0.0394343  
H258     H      0.869010000000     0.771840000000     0.997360000000     0.0359874  
H259     H      0.788390000000     0.859240000000     0.055320000000     0.0393284  
H260     H      0.679120000000     0.624820000000     0.955810000000     0.0318482  
H261     H      0.912010000000     0.819220000000     0.037610000000     0.0351468  
H262     H      0.646520000000     0.737940000000     0.016220000000     0.033337   
H263     H      0.738460000000     0.645280000000     0.996260000000     0.0425456  
H264     H      0.591450000000     0.682100000000     0.021510000000     0.0381044  
H265     H      0.838110000000     0.917230000000     0.034810000000     0.0338168  
H266     H      0.796140000000     0.756710000000     0.084040000000     0.0422249  
H267     H      0.921190000000     0.827980000000     0.983250000000     0.0401115  
H268     H      0.721750000000     0.752630000000     0.948950000000     0.0435912  
H269     H      0.848600000000     0.814080000000     0.966460000000     0.0379007  
H270     H      0.683620000000     0.589500000000     0.998900000000     0.0366954  
H271     H      0.656750000000     0.699310000000     0.055560000000     0.0379217  
H272     H      0.708670000000     0.645550000000     0.043810000000     0.0395256  
H273     H      0.777300000000     0.803780000000     0.959940000000     0.039855   
H274     H      0.798780000000     0.864800000000     0.000820000000     0.0394925  
H275     H      0.613460000000     0.688580000000     0.970730000000     0.0368704  
H276     H      0.860060000000     0.843460000000     0.110520000000     0.0272772  
H277     H      0.783760000000     0.217490000000     0.069670000000     0.0383101  
H278     H      0.736620000000     0.362520000000     0.015030000000     0.0361462  
H279     H      0.639710000000     0.272650000000     0.021030000000     0.0393676  
H280     H      0.885770000000     0.175960000000     0.956010000000     0.0238972  
H281     H      0.681360000000     0.395800000000     0.053320000000     0.0273585  
H282     H      0.767100000000     0.137590000000     0.003670000000     0.0357338  
H283     H      0.858150000000     0.233020000000     0.995560000000     0.0448538  
H284     H      0.824220000000     0.084310000000     0.013410000000     0.0285832  
H285     H      0.587060000000     0.329060000000     0.007560000000     0.0183941  
H286     H      0.732410000000     0.273280000000     0.080580000000     0.0424808  
H287     H      0.684030000000     0.419070000000     0.002740000000     0.0297149  
H288     H      0.766580000000     0.227760000000     0.937220000000     0.0423819  
H289     H      0.703670000000     0.354040000000     0.970390000000     0.0418357  
H290     H      0.914930000000     0.180310000000     0.003390000000     0.0215682  
H291     H      0.801330000000     0.147510000000     0.047040000000     0.0388256  
H292     H      0.854060000000     0.202020000000     0.042160000000     0.0417642  
H293     H      0.715390000000     0.283460000000     0.948050000000     0.038427   
H294     H      0.647450000000     0.302110000000     0.974210000000     0.0436782  
H295     H      0.822020000000     0.107520000000     0.962760000000     0.0253907  
H296     H      0.644160000000     0.337840000000     0.099640000000     0.0314289  
H297     H      0.310100000000     0.744820000000     0.083940000000     0.0375688  
H298     H      0.240230000000     0.868670000000     0.003390000000     0.0368687  
H299     H      0.158180000000     0.795390000000     0.077130000000     0.0369439  
H300     H      0.388420000000     0.681850000000     0.965580000000     0.0353526  
H301     H      0.200490000000     0.917180000000     0.045120000000     0.0266512  
H302     H      0.275470000000     0.650090000000     0.032800000000     0.0329509  
H303     H      0.365480000000     0.742110000000     0.003000000000     0.0338214  
H304     H      0.332030000000     0.596110000000     0.036800000000     0.0281035  
H305     H      0.102600000000     0.850320000000     0.071340000000     0.0253139  
H306     H      0.260960000000     0.802350000000     0.095170000000     0.0447775  
H307     H      0.183460000000     0.921370000000     0.992120000000     0.0365449  
H308     H      0.254200000000     0.720720000000     0.964460000000     0.039671   
H309     H      0.193580000000     0.848090000000     0.979560000000     0.0444388  
H310     H      0.422510000000     0.688180000000     0.009210000000     0.0357772  
H311     H      0.316360000000     0.662630000000     0.069230000000     0.0374476  
H312     H      0.367930000000     0.715480000000     0.052290000000     0.0363464  
H313     H      0.203330000000     0.776420000000     0.976930000000     0.0489665  
H314     H      0.144280000000     0.805800000000     0.023960000000     0.0396723  
H315     H      0.322830000000     0.616340000000     0.985630000000     0.0316649  
H316     H      0.159040000000     0.846020000000     0.143300000000     0.0264278  
H317     H      0.219950000000     0.229710000000     0.082890000000     0.038042   
H318     H      0.364890000000     0.276540000000     0.017580000000     0.0356842  
H319     H      0.273170000000     0.370570000000     0.032430000000     0.0398915  
H320     H      0.178660000000     0.117420000000     0.979930000000     0.0275938  
H321     H      0.399820000000     0.328900000000     0.057790000000     0.0192416  
H322     H      0.138830000000     0.242860000000     0.013880000000     0.0329105  
H323     H      0.233400000000     0.150840000000     0.017430000000     0.0335301  
H324     H      0.084690000000     0.186590000000     0.028090000000     0.0281609  
H325     H      0.328130000000     0.425720000000     0.027550000000     0.0240956  
H326     H      0.276000000000     0.281350000000     0.090230000000     0.0419667  
H327     H      0.419750000000     0.331990000000     0.005990000000     0.0255514  
H328     H      0.227540000000     0.240740000000     0.949620000000     0.0425781  
H329     H      0.353890000000     0.312100000000     0.975660000000     0.0426979  
H330     H      0.178540000000     0.096010000000     0.031280000000     0.0296129  
H331     H      0.147370000000     0.212750000000     0.060300000000     0.0351194  
H332     H      0.201030000000     0.160090000000     0.062240000000     0.0356572  
H333     H      0.283010000000     0.293260000000     0.957100000000     0.0389803  
H334     H      0.302950000000     0.367410000000     0.985240000000     0.0451605  
H335     H      0.107860000000     0.185810000000     0.977540000000     0.0288005  
H336     H      0.344040000000     0.353790000000     0.108160000000     0.0336635  
H337     H      0.790220000000     0.933110000000     0.779260000000     0.0366998  
H338     H      0.647880000000     0.000600000000     0.735840000000     0.0362579  
H339     H      0.740600000000     0.999850000000     0.642050000000     0.0511903  
H340     H      0.834170000000     0.030650000000     0.896040000000     0.0245987  
H341     H      0.613150000000     0.966740000000     0.679720000000     0.0260414  
H342     H      0.872400000000     0.998710000000     0.769560000000     0.0385238  
H343     H      0.778220000000     0.996200000000     0.861690000000     0.0388988  
H344     H      0.926010000000     0.980040000000     0.824970000000     0.0357215  
H345     H      0.684940000000     0.015300000000     0.588470000000     0.0119073  
H346     H      0.734860000000     0.930270000000     0.726590000000     0.0459288  
H347     H      0.593450000000     0.018900000000     0.681480000000     0.0246032  
H348     H      0.785320000000     0.067390000000     0.777100000000     0.0409283  
H349     H      0.658470000000     0.046830000000     0.705890000000     0.0404036  
H350     H      0.832970000000     0.978410000000     0.915540000000     0.0364766  
H351     H      0.862060000000     0.951690000000     0.798340000000     0.0369896  
H352     H      0.808820000000     0.950350000000     0.850890000000     0.0377646  
H353     H      0.730130000000     0.064520000000     0.724200000000     0.0426343  
H354     H      0.710040000000     0.045710000000     0.651690000000     0.0448244  
H355     H      0.905670000000     0.031950000000     0.826730000000     0.0268906  
H356     H      0.673000000000     0.919560000000     0.638790000000     0.0323893  
H357     H      0.229690000000     0.075440000000     0.788130000000     0.0391373  
H358     H      0.370540000000     0.016290000000     0.734410000000     0.0358341  
H359     H      0.274950000000     0.019020000000     0.643450000000     0.0403227  
H360     H      0.187730000000     0.972610000000     0.900190000000     0.0356637  
H361     H      0.400820000000     0.053860000000     0.677500000000     0.0286585  
H362     H      0.150990000000     0.003930000000     0.773790000000     0.031845   
H363     H      0.243090000000     0.010700000000     0.867890000000     0.0333293  
H364     H      0.095160000000     0.015910000000     0.827150000000     0.0354019  
H365     H      0.329170000000     0.004680000000     0.587860000000     0.0281452  
H366     H      0.281830000000     0.083350000000     0.732790000000     0.0424599  
H367     H      0.423810000000     0.002970000000     0.679030000000     0.0337027  
H368     H      0.238660000000     0.941780000000     0.777500000000     0.0436623  
H369     H      0.360330000000     0.970940000000     0.702910000000     0.0459838  
H370     H      0.186350000000     0.024310000000     0.921130000000     0.0301742  
H371     H      0.157290000000     0.051010000000     0.803730000000     0.0363053  
H372     H      0.210280000000     0.055050000000     0.857270000000     0.0372063  
H373     H      0.290400000000     0.949690000000     0.721840000000     0.039143   
H374     H      0.305660000000     0.972850000000     0.650770000000     0.0492782  
H375     H      0.121180000000     0.966580000000     0.830920000000     0.0394534  
H376     H      0.340410000000     0.099420000000     0.640110000000     0.0327967  
H377     H      0.261420000000     0.940480000000     0.305180000000     0.0363069  
H378     H      0.143450000000     0.035540000000     0.234990000000     0.0335751  
H379     H      0.212440000000     0.954800000000     0.156160000000     0.0378032  
H380     H      0.325820000000     0.047810000000     0.392260000000     0.0364379  
H381     H      0.093910000000     0.999420000000     0.190480000000     0.0302119  
H382     H      0.361210000000     0.998230000000     0.271950000000     0.0346931  
H383     H      0.269400000000     0.007320000000     0.366140000000     0.0232843  
H384     H      0.417070000000     0.991260000000     0.326960000000     0.0396033  
H385     H      0.167030000000     0.976490000000     0.095660000000     0.0323844  
H386     H      0.203370000000     0.935860000000     0.255660000000     0.0447086  
H387     H      0.095440000000     0.053560000000     0.176180000000     0.0196631  
H388     H      0.294120000000     0.061120000000     0.255920000000     0.0394616  
H389     H      0.169420000000     0.058090000000     0.190630000000     0.0373375  
H390     H      0.325430000000     0.999940000000     0.420650000000     0.045601   
H391     H      0.352750000000     0.955840000000     0.307630000000     0.0364124  
H392     H      0.301210000000     0.961110000000     0.361610000000     0.0311769  
H393     H      0.238480000000     0.055020000000     0.204390000000     0.0414647  
H394     H      0.212350000000     0.009560000000     0.144520000000     0.0326766  
H395     H      0.393250000000     0.041520000000     0.323510000000     0.027424   
H396     H      0.119480000000     0.923330000000     0.178710000000     0.017821   
H397     H      0.704410000000     0.953680000000     0.268620000000     0.0382749  
H398     H      0.778350000000     0.049450000000     0.148130000000     0.0347095  
H399     H      0.846380000000     0.956670000000     0.213930000000     0.0356996  
H400     H      0.624820000000     0.066850000000     0.338060000000     0.0200966  
H401     H      0.809120000000     0.005780000000     0.095120000000     0.0298862  
H402     H      0.738570000000     0.003810000000     0.364870000000     0.0235485  
H403     H      0.646470000000     0.033020000000     0.275010000000     0.0369305  
H404     H      0.682820000000     0.994650000000     0.418840000000     0.0414555  
H405     H      0.900290000000     0.954550000000     0.157430000000     0.0205785  
H406     H      0.751870000000     0.946230000000     0.209450000000     0.0415102  
H407     H      0.837140000000     0.054230000000     0.095220000000     0.027349   
H408     H      0.756910000000     0.074540000000     0.295180000000     0.0416707  
H409     H      0.828770000000     0.062540000000     0.169520000000     0.0365342  
H410     H      0.590470000000     0.023310000000     0.328350000000     0.029478   
H411     H      0.699880000000     0.965450000000     0.350990000000     0.0341257  
H412     H      0.646310000000     0.982390000000     0.299410000000     0.0446824  
H413     H      0.806550000000     0.065660000000     0.237800000000     0.038933   
H414     H      0.869510000000     0.007190000000     0.206070000000     0.0331785  
H415     H      0.688160000000     0.047080000000     0.400050000000     0.0264031  
H416     H      0.811580000000     0.907560000000     0.160020000000     0.028389   
H417     H      0.959220000000     0.273910000000     0.704700000000     0.0390437  
H418     H      0.015970000000     0.131140000000     0.762540000000     0.03158    
H419     H      0.008720000000     0.230310000000     0.849210000000     0.0368931  
H420     H      0.066700000000     0.324770000000     0.601530000000     0.0241026  
H421     H      0.974810000000     0.102770000000     0.817750000000     0.0376336  
H422     H      0.030110000000     0.352270000000     0.725920000000     0.0362964  
H423     H      0.029720000000     0.264530000000     0.627410000000     0.0359316  
H424     H      0.018730000000     0.410230000000     0.675790000000     0.0334279  
H425     H      0.017760000000     0.178560000000     0.907760000000     0.0230823  
H426     H      0.948700000000     0.220760000000     0.758440000000     0.0427769  
H427     H      0.025830000000     0.080230000000     0.821400000000     0.0350421  
H428     H      0.092440000000     0.264520000000     0.721260000000     0.0426635  
H429     H      0.059380000000     0.142390000000     0.796370000000     0.0360446  
H430     H      0.016900000000     0.322020000000     0.576130000000     0.0260685  
H431     H      0.983570000000     0.345960000000     0.694980000000     0.0472087  
H432     H      0.983240000000     0.294520000000     0.637650000000     0.0467532  
H433     H      0.081840000000     0.211510000000     0.775290000000     0.0390687  
H434     H      0.054660000000     0.198450000000     0.846290000000     0.0396812  
H435     H      0.067680000000     0.383880000000     0.669070000000     0.027786   
H436     H      0.927040000000     0.166440000000     0.848720000000     0.0323883  
H437     H      0.939830000000     0.776960000000     0.800150000000     0.0369653  
H438     H      0.986670000000     0.727800000000     0.655580000000     0.0346491  
H439     H      0.993220000000     0.630540000000     0.744430000000     0.0514205  
H440     H      0.051650000000     0.885860000000     0.834790000000     0.032976   
H441     H      0.948080000000     0.671000000000     0.625230000000     0.0301201  
H442     H      0.010140000000     0.765520000000     0.877640000000     0.0248687  
H443     H      0.011340000000     0.854240000000     0.780300000000     0.0360241  
H444     H      0.000340000000     0.823620000000     0.929800000000     0.0362353  
H445     H      0.004390000000     0.578650000000     0.686200000000     0.0192379  
H446     H      0.928010000000     0.723030000000     0.747170000000     0.0455466  
H447     H      0.996480000000     0.676280000000     0.597970000000     0.0386439  
H448     H      0.072670000000     0.763590000000     0.784170000000     0.0411299  
H449     H      0.033550000000     0.697150000000     0.660140000000     0.0301538  
H450     H      0.002290000000     0.911960000000     0.832350000000     0.0352715  
H451     H      0.965060000000     0.797790000000     0.868620000000     0.0345271  
H452     H      0.965840000000     0.848990000000     0.812720000000     0.0452758  
H453     H      0.060870000000     0.709870000000     0.731070000000     0.0425326  
H454     H      0.037000000000     0.640900000000     0.711320000000     0.0436066  
H455     H      0.050330000000     0.822500000000     0.904930000000     0.0332447  
H456     H      0.908880000000     0.631090000000     0.687460000000     0.0345003  
H457     H      0.950010000000     0.736930000000     0.295970000000     0.0380897  
H458     H      0.005310000000     0.880540000000     0.244150000000     0.0328441  
H459     H      0.021540000000     0.781070000000     0.159240000000     0.0364701  
H460     H      0.047180000000     0.691140000000     0.411530000000     0.0301748  
H461     H      0.969260000000     0.905680000000     0.184700000000     0.0305957  
H462     H      0.022510000000     0.660870000000     0.283450000000     0.0360648  
H463     H      0.010790000000     0.748820000000     0.380930000000     0.0351512  
H464     H      0.006280000000     0.603020000000     0.333260000000     0.0220058  
H465     H      0.031080000000     0.833540000000     0.101160000000     0.0278515  
H466     H      0.944790000000     0.789190000000     0.240640000000     0.0420286  
H467     H      0.018590000000     0.931850000000     0.185530000000     0.0284713  
H468     H      0.083900000000     0.750820000000     0.296460000000     0.0427288  
H469     H      0.053740000000     0.873750000000     0.216510000000     0.0362909  
H470     H      0.994730000000     0.690640000000     0.431010000000     0.0402464  
H471     H      0.973510000000     0.666420000000     0.310470000000     0.0450644  
H472     H      0.966770000000     0.716940000000     0.366480000000     0.0435883  
H473     H      0.078530000000     0.803510000000     0.241210000000     0.0387427  
H474     H      0.061970000000     0.818910000000     0.167360000000     0.037896   
H475     H      0.055490000000     0.628190000000     0.341760000000     0.0228611  
H476     H      0.933420000000     0.830420000000     0.149120000000     0.0312416  
H477     H      0.083990000000     0.238790000000     0.205360000000     0.0378595  
H478     H      0.020980000000     0.381520000000     0.263810000000     0.0354951  
H479     H      0.043830000000     0.285630000000     0.351540000000     0.0405161  
H480     H      0.973680000000     0.188740000000     0.103460000000     0.0307743  
H481     H      0.061880000000     0.413990000000     0.317900000000     0.0196271  
H482     H      0.016060000000     0.156900000000     0.227970000000     0.0317297  
H483     H      0.012980000000     0.245880000000     0.130960000000     0.0319049  
H484     H      0.025700000000     0.099590000000     0.174960000000     0.0279243  
H485     H      0.033600000000     0.336620000000     0.409700000000     0.0256232  
H486     H      0.094470000000     0.293780000000     0.257530000000     0.0412306  
H487     H      0.009420000000     0.432800000000     0.321860000000     0.0226548  
H488     H      0.951500000000     0.242570000000     0.227950000000     0.0422362  
H489     H      0.980390000000     0.366710000000     0.299610000000     0.0456077  
H490     H      0.023530000000     0.187820000000     0.078520000000     0.0305254  
H491     H      0.060520000000     0.163550000000     0.194430000000     0.0348773  
H492     H      0.058840000000     0.214500000000     0.139020000000     0.0346468  
H493     H      0.962060000000     0.296900000000     0.280700000000     0.0384241  
H494     H      0.994170000000     0.311490000000     0.350950000000     0.0496245  
H495     H      0.975360000000     0.123770000000     0.174980000000     0.0300895  
H496     H      0.115590000000     0.357410000000     0.341050000000     0.0321362  
N1       N      0.520220000000     0.130030000000     0.374890000000    -0.236883   
N2       N      0.518600000000     0.192390000000     0.313030000000    -0.10941    
N3       N      0.489550000000     0.321640000000     0.194090000000    -0.110175   
N4       N      0.493140000000     0.382730000000     0.130820000000    -0.236822   
N5       N      0.494710000000     0.876780000000     0.379120000000    -0.231028   
N6       N      0.486850000000     0.815160000000     0.318310000000    -0.110259   
N7       N      0.514850000000     0.695370000000     0.192440000000    -0.111532   
N8       N      0.508580000000     0.634760000000     0.130720000000    -0.222027   
N9       N      0.493880000000     0.883150000000     0.630910000000    -0.202427   
N10      N      0.490220000000     0.821930000000     0.694590000000    -0.110477   
N11      N      0.520780000000     0.695660000000     0.816670000000    -0.111828   
N12      N      0.514100000000     0.633200000000     0.878990000000    -0.198515   
N13      N      0.494430000000     0.381610000000     0.877380000000    -0.23176    
N14      N      0.488850000000     0.319190000000     0.816530000000    -0.108874   
N15      N      0.498420000000     0.197780000000     0.686320000000    -0.11012    
N16      N      0.510820000000     0.133590000000     0.628260000000    -0.219241   
N17      N      0.883320000000     0.374350000000     0.477820000000    -0.227587   
N18      N      0.824550000000     0.310000000000     0.464580000000    -0.109919   
N19      N      0.701650000000     0.183470000000     0.485460000000    -0.110396   
N20      N      0.637810000000     0.123900000000     0.482710000000    -0.235037   
N21      N      0.875600000000     0.626420000000     0.497530000000    -0.212279   
N22      N      0.816570000000     0.688730000000     0.475720000000    -0.110781   
N23      N      0.683660000000     0.805100000000     0.494260000000    -0.11102    
N24      N      0.625480000000     0.870770000000     0.494790000000    -0.222298   
N25      N      0.386510000000     0.140330000000     0.486700000000    -0.228462   
N26      N      0.328530000000     0.205680000000     0.476490000000    -0.109827   
N27      N      0.200910000000     0.328440000000     0.492240000000    -0.109858   
N28      N      0.135690000000     0.386570000000     0.484390000000    -0.233407   
N29      N      0.373480000000     0.887170000000     0.509780000000    -0.210437   
N30      N      0.309170000000     0.827640000000     0.515340000000    -0.110266   
N31      N      0.184030000000     0.703980000000     0.490880000000    -0.110955   
N32      N      0.125380000000     0.638940000000     0.498990000000    -0.225623   
N33      N      0.871870000000     0.515520000000     0.382600000000    -0.225257   
N34      N      0.810960000000     0.516580000000     0.320370000000    -0.109338   
N35      N      0.699700000000     0.484460000000     0.186580000000    -0.111266   
N36      N      0.636740000000     0.489580000000     0.125760000000    -0.226928   
N37      N      0.381380000000     0.498190000000     0.132140000000    -0.238065   
N38      N      0.318870000000     0.494330000000     0.193340000000    -0.109076   
N39      N      0.193580000000     0.511350000000     0.318220000000    -0.110336   
N40      N      0.130700000000     0.503100000000     0.379010000000    -0.237614   
N41      N      0.129900000000     0.488010000000     0.631520000000    -0.221969   
N42      N      0.191090000000     0.478760000000     0.693630000000    -0.110251   
N43      N      0.313780000000     0.505610000000     0.818380000000    -0.110823   
N44      N      0.375970000000     0.501870000000     0.879450000000    -0.225233   
N45      N      0.627930000000     0.509540000000     0.874700000000    -0.20994    
N46      N      0.688400000000     0.512020000000     0.811070000000    -0.110286   
N47      N      0.813140000000     0.485110000000     0.687480000000    -0.11195    
N48      N      0.877080000000     0.492990000000     0.627430000000    -0.200382   
N49      N      0.886210000000     0.875390000000     0.014550000000    -0.209023   
N50      N      0.826520000000     0.811530000000     0.029370000000    -0.112989   
N51      N      0.694660000000     0.694870000000     0.001200000000    -0.111349   
N52      N      0.632140000000     0.632890000000     0.000600000000    -0.200292   
N53      N      0.631140000000     0.379180000000     0.014050000000    -0.231454   
N54      N      0.690670000000     0.315290000000     0.023010000000    -0.107895   
N55      N      0.809930000000     0.187410000000     0.994450000000    -0.10099    
N56      N      0.873460000000     0.127510000000     0.998720000000    -0.223695   
N57      N      0.140760000000     0.890710000000     0.033840000000    -0.229078   
N58      N      0.203280000000     0.830310000000     0.043000000000    -0.109617   
N59      N      0.317010000000     0.697820000000     0.012910000000    -0.111106   
N60      N      0.379570000000     0.636620000000     0.012460000000    -0.216169   
N61      N      0.379570000000     0.382520000000     0.025080000000    -0.241405   
N62      N      0.317030000000     0.320650000000     0.030350000000    -0.10747    
N63      N      0.188520000000     0.199100000000     0.009750000000    -0.111178   
N64      N      0.127120000000     0.136310000000     0.016430000000    -0.236008   
N65      N      0.633840000000     0.004670000000     0.630090000000    -0.230713   
N66      N      0.695980000000     0.993790000000     0.690810000000    -0.101112   
N67      N      0.823360000000     0.003770000000     0.813830000000    -0.116187   
N68      N      0.884440000000     0.993190000000     0.875480000000    -0.200639   
N69      N      0.381280000000     0.014530000000     0.628430000000    -0.206929   
N70      N      0.320730000000     0.023380000000     0.691280000000    -0.107325   
N71      N      0.199550000000     0.001670000000     0.818830000000    -0.112414   
N72      N      0.136610000000     0.008530000000     0.879240000000    -0.214485   
N73      N      0.124680000000     0.011760000000     0.133480000000    -0.245871   
N74      N      0.179810000000     0.992570000000     0.199790000000    -0.109511   
N75      N      0.313140000000     0.008550000000     0.316380000000    -0.119578   
N76      N      0.376030000000     0.007850000000     0.377260000000    -0.217173   
N77      N      0.869890000000     0.002060000000     0.121140000000    -0.227609   
N78      N      0.807720000000     0.000530000000     0.182110000000    -0.114301   
N79      N      0.695990000000     0.023090000000     0.317970000000    -0.114824   
N80      N      0.633290000000     0.016920000000     0.379350000000    -0.235923   
N81      N      0.010020000000     0.124870000000     0.868820000000    -0.218017   
N82      N      0.006510000000     0.182530000000     0.803220000000    -0.111441   
N83      N      0.034310000000     0.305580000000     0.679110000000    -0.108374   
N84      N      0.024110000000     0.370910000000     0.621550000000    -0.217796   
N85      N      0.990870000000     0.622290000000     0.637520000000    -0.20273    
N86      N      0.984960000000     0.681690000000     0.703030000000    -0.107648   
N87      N      0.015770000000     0.806900000000     0.826330000000    -0.114419   
N88      N      0.011990000000     0.872470000000     0.885570000000    -0.196546   
N89      N      0.010790000000     0.885640000000     0.137680000000    -0.226204   
N90      N      0.006560000000     0.828670000000     0.203050000000    -0.1111     
N91      N      0.022190000000     0.707460000000     0.330560000000    -0.107989   
N92      N      0.010260000000     0.642190000000     0.387480000000    -0.225608   
N93      N      0.029120000000     0.390370000000     0.369940000000    -0.238656   
N94      N      0.036930000000     0.331450000000     0.304120000000    -0.106342   
N95      N      0.009050000000     0.204130000000     0.182120000000    -0.111924   
N96      N      0.012240000000     0.138860000000     0.122630000000    -0.23279    
O1       O      0.009890000000     0.116930000000     0.053520000000    -1.04722    
O2       O      0.011710000000     0.898710000000     0.066510000000    -0.773294   
O3       O      0.941790000000     0.003400000000     0.108220000000    -0.97329    
O4       O      0.056740000000     0.021710000000     0.112160000000    -1.07996    
O5       O      0.111060000000     0.015440000000     0.063080000000    -1.07825    
O6       O      0.892340000000     0.009120000000     0.053790000000    -0.794752   
O7       O      0.006260000000     0.954270000000     0.114740000000    -0.99843    
O8       O      0.007460000000     0.067870000000     0.107890000000    -1.07136    
O9       O      0.050430000000     0.970590000000     0.051500000000    -2.09294    
O10      O      0.962280000000     0.051860000000     0.044390000000    -2.07778    
O11      O      0.961220000000     0.961290000000     0.051260000000    -0.861902   
O12      O      0.014000000000     0.015420000000     0.011910000000    -2.56746    
O13      O      0.011100000000     0.894560000000     0.955010000000    -0.706034   
O14      O      0.007690000000     0.110860000000     0.939940000000    -0.923326   
O15      O      0.900940000000     0.945790000000     0.006060000000    -0.734118   
O16      O      0.118140000000     0.955230000000     0.012630000000    -0.998469   
O17      O      0.110900000000     0.065870000000     0.014650000000    -1.12413    
O18      O      0.894370000000     0.058080000000     0.002380000000    -0.762401   
O19      O      0.954600000000     0.997170000000     0.894620000000    -0.557366   
O20      O      0.066150000000     0.005170000000     0.895580000000    -0.617412   
O21      O      0.900940000000     0.995360000000     0.945830000000    -0.718817   
O22      O      0.116350000000     0.011530000000     0.948970000000    -0.946411   
O23      O      0.955640000000     0.895020000000     0.007120000000    -0.728334   
O24      O      0.944370000000     0.112120000000     0.999390000000    -0.947308   
O25      O      0.057550000000     0.116070000000     0.009280000000    -1.0546     
O26      O      0.068980000000     0.901620000000     0.024340000000    -0.734056   
O27      O      0.011150000000     0.943960000000     0.899620000000    -0.56083    
O28      O      0.011580000000     0.055930000000     0.891030000000    -0.60709    
O29      O      0.050210000000     0.049950000000     0.962820000000    -2.00144    
O30      O      0.971010000000     0.963720000000     0.966210000000    -1.54553    
O31      O      0.960480000000     0.044580000000     0.954570000000    -1.21003    
O32      O      0.053070000000     0.958930000000     0.962600000000    -1.21597    
O33      O      0.021190000000     0.403120000000     0.440850000000    -1.03349    
O34      O      0.003940000000     0.619600000000     0.455890000000    -0.774885   
O35      O      0.943650000000     0.516760000000     0.397820000000    -0.967954   
O36      O      0.060400000000     0.505800000000     0.396900000000    -1.07034    
O37      O      0.112200000000     0.503300000000     0.448820000000    -1.07541    
O38      O      0.893010000000     0.500600000000     0.449030000000    -0.809252   
O39      O      0.005880000000     0.571020000000     0.400520000000    -1.01039    
O40      O      0.013540000000     0.457700000000     0.392610000000    -1.06414    
O41      O      0.047570000000     0.550250000000     0.462720000000    -2.09279    
O42      O      0.966120000000     0.461980000000     0.455610000000    -2.07781    
O43      O      0.957660000000     0.551850000000     0.460330000000    -0.875949   
O44      O      0.013360000000     0.497760000000     0.494770000000    -2.56764    
O45      O      0.996040000000     0.608710000000     0.566340000000    -0.700879   
O46      O      0.014110000000     0.393320000000     0.553330000000    -0.919707   
O47      O      0.894400000000     0.556630000000     0.502890000000    -0.742689   
O48      O      0.110630000000     0.567790000000     0.502840000000    -0.978518   
O49      O      0.114340000000     0.455410000000     0.491550000000    -1.06979    
O50      O      0.897650000000     0.444380000000     0.491380000000    -0.769467   
O51      O      0.948070000000     0.495180000000     0.610890000000    -0.578774   
O52      O      0.060150000000     0.495700000000     0.613700000000    -0.627176   
O53      O      0.896350000000     0.499710000000     0.557910000000    -0.73919    
O54      O      0.112450000000     0.499880000000     0.562030000000    -0.952007   
O55      O      0.944790000000     0.610980000000     0.511100000000    -0.732221   
O56      O      0.952050000000     0.394780000000     0.489490000000    -0.949466   
O57      O      0.064780000000     0.401190000000     0.488480000000    -1.03285    
O58      O      0.056270000000     0.617430000000     0.505480000000    -0.764136   
O59      O      0.999830000000     0.553230000000     0.615400000000    -0.568588   
O60      O      0.012050000000     0.441260000000     0.609090000000    -0.61837    
O61      O      0.050060000000     0.460560000000     0.540550000000    -2.00218    
O62      O      0.964030000000     0.539060000000     0.545000000000    -1.5877     
O63      O      0.960150000000     0.456650000000     0.545680000000    -1.24994    
O64      O      0.045710000000     0.549760000000     0.552910000000    -1.23681    
O65      O      0.614550000000     0.007870000000     0.448180000000    -1.05586    
O66      O      0.394870000000     0.011740000000     0.447010000000    -0.793986   
O67      O      0.502160000000     0.946730000000     0.396090000000    -1.01506    
O68      O      0.511900000000     0.060550000000     0.394310000000    -1.05236    
O69      O      0.521180000000     0.112360000000     0.445250000000    -1.04171    
O70      O      0.501100000000     0.894940000000     0.448510000000    -0.805974   
O71      O      0.446840000000     0.005580000000     0.395070000000    -0.983139   
O72      O      0.562640000000     0.012640000000     0.396630000000    -1.07532    
O73      O      0.468110000000     0.052490000000     0.457810000000    -2.09686    
O74      O      0.548590000000     0.962790000000     0.458610000000    -2.06048    
O75      O      0.458180000000     0.962850000000     0.456960000000    -0.870341   
O76      O      0.515140000000     0.014180000000     0.494210000000    -2.56367    
O77      O      0.398620000000     0.011540000000     0.558040000000    -0.723784   
O78      O      0.614990000000     0.004780000000     0.560150000000    -0.930103   
O79      O      0.444650000000     0.901260000000     0.505450000000    -0.748698   
O80      O      0.454990000000     0.118170000000     0.496980000000    -0.960727   
O81      O      0.567300000000     0.109680000000     0.489870000000    -1.07746    
O82      O      0.556230000000     0.893100000000     0.496200000000    -0.774901   
O83      O      0.502840000000     0.952680000000     0.611460000000    -0.575772   
O84      O      0.509440000000     0.063780000000     0.611410000000    -0.633832   
O85      O      0.497130000000     0.899680000000     0.559900000000    -0.711121   
O86      O      0.517520000000     0.114810000000     0.558900000000    -0.940862   
O87      O      0.394860000000     0.956690000000     0.506340000000    -0.735539   
O88      O      0.611310000000     0.941910000000     0.500040000000    -0.930674   
O89      O      0.616550000000     0.055140000000     0.491820000000    -1.03583    
O90      O      0.400100000000     0.069060000000     0.493360000000    -0.764995   
O91      O      0.451350000000     0.009780000000     0.610240000000    -0.587099   
O92      O      0.563360000000     0.008420000000     0.612420000000    -0.626198   
O93      O      0.553200000000     0.048600000000     0.541890000000    -1.97859    
O94      O      0.465890000000     0.970710000000     0.541930000000    -1.60083    
O95      O      0.546900000000     0.958250000000     0.548710000000    -1.25507    
O96      O      0.462710000000     0.052640000000     0.547120000000    -1.23918    
O97      O      0.397490000000     0.452850000000     0.018130000000    -1.05933    
O98      O      0.615330000000     0.449610000000     0.005980000000    -0.780658   
O99      O      0.504530000000     0.399730000000     0.946370000000    -1.0354     
O100     O      0.495120000000     0.400620000000     0.060520000000    -1.07228    
O101     O      0.499670000000     0.452240000000     0.112300000000    -1.09889    
O102     O      0.495850000000     0.451600000000     0.894690000000    -0.795696   
O103     O      0.561760000000     0.398800000000     0.006840000000    -1.03704    
O104     O      0.448750000000     0.400590000000     0.013280000000    -1.09319    
O105     O      0.546160000000     0.462580000000     0.047740000000    -2.13501    
O106     O      0.458740000000     0.463480000000     0.965410000000    -2.10659    
O107     O      0.548980000000     0.459940000000     0.957980000000    -0.86656    
O108     O      0.496650000000     0.499170000000     0.013380000000    -2.599      
O109     O      0.613580000000     0.562160000000     0.999330000000    -0.689909   
O110     O      0.397420000000     0.566350000000     0.011340000000    -0.943404   
O111     O      0.557920000000     0.507440000000     0.894740000000    -0.744004   
O112     O      0.566190000000     0.498980000000     0.110470000000    -0.965613   
O113     O      0.451770000000     0.499010000000     0.112900000000    -1.07728    
O114     O      0.446390000000     0.503090000000     0.896410000000    -0.776075   
O115     O      0.508090000000     0.615550000000     0.949210000000    -0.57591    
O116     O      0.504520000000     0.617300000000     0.060920000000    -0.632845   
O117     O      0.507510000000     0.562840000000     0.897040000000    -0.710709   
O118     O      0.506980000000     0.564830000000     0.112430000000    -0.987463   
O119     O      0.612160000000     0.507030000000     0.945600000000    -0.731074   
O120     O      0.395250000000     0.504230000000     0.949330000000    -0.953526   
O121     O      0.398620000000     0.502220000000     0.062320000000    -1.06857    
O122     O      0.616890000000     0.499760000000     0.057100000000    -0.76536    
O123     O      0.561710000000     0.615210000000     0.004250000000    -0.581052   
O124     O      0.449760000000     0.618200000000     0.008240000000    -0.6236     
O125     O      0.462740000000     0.547840000000     0.049740000000    -2.01901    
O126     O      0.543100000000     0.545910000000     0.965340000000    -1.58919    
O127     O      0.461400000000     0.553600000000     0.959700000000    -1.22574    
O128     O      0.553070000000     0.552050000000     0.046350000000    -1.22894    
S1       S      0.550700000000     0.100170000000     0.303200000000    -0.0485596  
S2       S      0.429820000000     0.896050000000     0.330610000000    -0.0442912  
S3       S      0.425660000000     0.836570000000     0.621220000000    -0.0409174  
S4       S      0.414220000000     0.378830000000     0.855380000000    -0.0401904  
S5       S      0.910570000000     0.327370000000     0.414740000000    -0.0397997  
S6       S      0.870950000000     0.625160000000     0.415030000000    -0.0125373  
S7       S      0.344130000000     0.129670000000     0.416280000000    -0.0402915  
S8       S      0.327150000000     0.906200000000     0.576040000000    -0.0333512  
S9       S      0.844700000000     0.592740000000     0.366470000000    -0.0494098  
S10      S      0.391850000000     0.428850000000     0.176670000000    -0.0469419  
S11      S      0.179530000000     0.424550000000     0.610520000000    -0.0402743  
S12      S      0.685960000000     0.566360000000     0.892700000000    -0.0369764  
S13      S      0.865100000000     0.882530000000     0.094090000000    -0.0252604  
S14      S      0.607870000000     0.331340000000     0.078080000000    -0.0383019  
S15      S      0.158030000000     0.876910000000     0.113930000000    -0.0522897  
S16      S      0.333190000000     0.392260000000     0.093150000000    -0.0515975  
S17      S      0.684790000000     0.943440000000     0.605510000000    -0.030993   
S18      S      0.329850000000     0.076160000000     0.605990000000    -0.0354133  
S19      S      0.128640000000     0.928860000000     0.137500000000     0.0136248  
S20      S      0.835910000000     0.926390000000     0.130460000000    -0.0405668  
S21      S      0.947750000000     0.178090000000     0.884110000000    -0.0211108  
S22      S      0.932760000000     0.595830000000     0.690880000000    -0.0425613  
S23      S      0.959350000000     0.823830000000     0.115910000000    -0.0276505  
S24      S      0.100040000000     0.347860000000     0.379550000000    -0.0537027  
Tb1      Tb     0.002090000000     0.008890000000     0.073800000000     6.28373    
Tb2      Tb     0.010520000000     0.935870000000     0.010080000000     4.23312    
Tb3      Tb     0.002710000000     0.076410000000     0.999060000000     6.24853    
Tb4      Tb     0.936350000000     0.004320000000     0.003500000000     4.31998    
Tb5      Tb     0.076660000000     0.008020000000     0.005030000000     6.51673    
Tb6      Tb     0.010440000000     0.003450000000     0.933870000000     2.96789    
Tb7      Tb     0.003240000000     0.511330000000     0.433740000000     6.29864    
Tb8      Tb     0.002720000000     0.575210000000     0.506900000000     4.23986    
Tb9      Tb     0.006580000000     0.434920000000     0.499370000000     6.14215    
Tb10     Tb     0.934570000000     0.501090000000     0.501150000000     4.42017    
Tb11     Tb     0.074880000000     0.509240000000     0.505280000000     6.47395    
Tb12     Tb     0.005670000000     0.498790000000     0.573760000000     3.0867     
Tb13     Tb     0.504770000000     0.004360000000     0.432570000000     6.27955    
Tb14     Tb     0.436050000000     0.011190000000     0.500610000000     4.36211    
Tb15     Tb     0.576600000000     0.001080000000     0.503590000000     6.1666     
Tb16     Tb     0.503350000000     0.936080000000     0.501610000000     4.39268    
Tb17     Tb     0.509340000000     0.076700000000     0.502350000000     6.34605    
Tb18     Tb     0.508200000000     0.008730000000     0.572560000000     3.11147    
Tb19     Tb     0.505340000000     0.437200000000     0.003480000000     6.47441    
Tb20     Tb     0.575580000000     0.504500000000     0.003450000000     4.25551    
Tb21     Tb     0.434570000000     0.509090000000     0.005300000000     6.32784    
Tb22     Tb     0.502380000000     0.505450000000     0.934660000000     4.34568    
Tb23     Tb     0.508150000000     0.508030000000     0.074750000000     6.55708    
Tb24     Tb     0.504490000000     0.577720000000     0.006200000000     3.10164    


