data_structure

_audit_creation_method RASPA-1.0
_audit_creation_date 2023-5-25
_audit_author_name 'Poobodin Mano'

_cell_length_a    32.1247
_cell_length_b    32.1783
_cell_length_c    32.0871
_cell_angle_alpha 90
_cell_angle_beta  90
_cell_angle_gamma 90
_cell_volume      33169

_symmetry_cell_setting          triclinic
_symmetry_space_group_name_Hall 'P 1'
_symmetry_space_group_name_H-M  'P 1'
_symmetry_Int_Tables_number     1

_symmetry_equiv_pos_as_xyz 'x,y,z'

loop_
_atom_site_label
_atom_site_type_symbol
_atom_site_fract_x
_atom_site_fract_y
_atom_site_fract_z
_atom_site_charge
Br1      Br     0.592590000000     0.124800000000     0.333300000000    -0.263639   
Br2      Br     0.590570000000     0.837640000000     0.380800000000    -0.254026   
Br3      Br     0.572710000000     0.602350000000     0.821250000000    -0.241755   
Br4      Br     0.561030000000     0.319610000000     0.913690000000    -0.242565   
Br5      Br     0.589210000000     0.208250000000     0.476880000000    -0.242779   
Br6      Br     0.594340000000     0.809380000000     0.545880000000    -0.242143   
Br7      Br     0.385250000000     0.183410000000     0.563910000000    -0.243025   
Br8      Br     0.184150000000     0.605880000000     0.562470000000    -0.238583   
Br9      Br     0.814860000000     0.431730000000     0.410980000000    -0.248878   
Br10     Br     0.370420000000     0.425570000000     0.161710000000    -0.228992   
Br11     Br     0.187870000000     0.421120000000     0.594730000000    -0.250198   
Br12     Br     0.839060000000     0.577520000000     0.642460000000    -0.256201   
Br13     Br     0.897610000000     0.825450000000     0.935880000000    -0.246674   
Br14     Br     0.824250000000     0.107030000000     0.943370000000    -0.233226   
Br15     Br     0.324680000000     0.613200000000     0.917640000000    -0.251132   
Br16     Br     0.324260000000     0.401820000000     0.053470000000    -0.233231   
Br17     Br     0.617270000000     0.097030000000     0.663200000000    -0.252259   
Br18     Br     0.378630000000     0.912000000000     0.666210000000    -0.252417   
Br19     Br     0.119770000000     0.107150000000     0.170920000000    -0.27336    
Br20     Br     0.833550000000     0.081420000000     0.118600000000    -0.229269   
Br21     Br     0.098560000000     0.117910000000     0.840220000000    -0.253171   
Br22     Br     0.071130000000     0.825820000000     0.905640000000    -0.237976   
Br23     Br     0.086420000000     0.900870000000     0.186200000000    -0.252037   
Br24     Br     0.939990000000     0.124050000000     0.169800000000    -0.225182   
C1       C      0.015540000000     0.101330000000     0.099410000000     0.735281   
C2       C      0.012850000000     0.907770000000     0.104880000000     0.673742   
C3       C      0.908950000000     0.006910000000     0.105040000000     0.671908   
C4       C      0.102140000000     0.023160000000     0.097140000000     0.733922   
C5       C      0.001140000000     0.905760000000     0.913000000000     0.571653   
C6       C      0.013250000000     0.098180000000     0.907570000000     0.659693   
C7       C      0.909030000000     0.907590000000     0.006560000000     0.58052    
C8       C      0.101530000000     0.905850000000     0.016030000000     0.686521   
C9       C      0.101200000000     0.098490000000     0.011700000000     0.711532   
C10      C      0.907330000000     0.099350000000     0.010710000000     0.695477   
C11      C      0.907770000000     0.000890000000     0.913090000000     0.555772   
C12      C      0.098690000000     0.002920000000     0.905010000000     0.644894   
C13      C      0.010410000000     0.410030000000     0.408900000000     0.721803   
C14      C      0.998320000000     0.603140000000     0.412850000000     0.678607   
C15      C      0.898870000000     0.500810000000     0.417260000000     0.677067   
C16      C      0.092400000000     0.495050000000     0.405280000000     0.728342   
C17      C      0.003820000000     0.596020000000     0.604400000000     0.562979   
C18      C      0.015140000000     0.404500000000     0.601880000000     0.651092   
C19      C      0.909070000000     0.599080000000     0.515070000000     0.588698   
C20      C      0.099650000000     0.600990000000     0.498410000000     0.692591   
C21      C      0.097550000000     0.409130000000     0.483230000000     0.715645   
C22      C      0.905450000000     0.406860000000     0.507250000000     0.689586   
C23      C      0.915750000000     0.504070000000     0.609700000000     0.568657   
C24      C      0.106900000000     0.493030000000     0.597940000000     0.653588   
C25      C      0.600820000000     0.018520000000     0.413800000000     0.732639   
C26      C      0.407110000000     0.008940000000     0.404000000000     0.663041   
C27      C      0.511120000000     0.911500000000     0.404370000000     0.680011   
C28      C      0.516270000000     0.103920000000     0.413010000000     0.737083   
C29      C      0.401830000000     0.994390000000     0.594380000000     0.577494   
C30      C      0.593510000000     0.010880000000     0.606510000000     0.652471   
C31      C      0.407050000000     0.909040000000     0.498600000000     0.589528   
C32      C      0.402260000000     0.100930000000     0.496960000000     0.687686   
C33      C      0.595510000000     0.102140000000     0.502090000000     0.729594   
C34      C      0.598940000000     0.909050000000     0.502490000000     0.69298    
C35      C      0.497280000000     0.906980000000     0.596580000000     0.571449   
C36      C      0.498950000000     0.098370000000     0.606470000000     0.651168   
C37      C      0.409990000000     0.408020000000     0.993380000000     0.72341    
C38      C      0.408290000000     0.602040000000     0.990850000000     0.671167   
C39      C      0.400320000000     0.505980000000     0.097360000000     0.675108   
C40      C      0.416080000000     0.487810000000     0.905080000000     0.722967   
C41      C      0.598980000000     0.600110000000     0.013820000000     0.555625   
C42      C      0.601980000000     0.408330000000     0.014330000000     0.642236   
C43      C      0.498460000000     0.603980000000     0.097890000000     0.583896   
C44      C      0.505760000000     0.598370000000     0.905550000000     0.687855   
C45      C      0.499270000000     0.405730000000     0.914840000000     0.727518   
C46      C      0.490620000000     0.412240000000     0.107900000000     0.685961   
C47      C      0.592230000000     0.514280000000     0.108160000000     0.563053   
C48      C      0.608450000000     0.492660000000     0.917160000000     0.648496   
C49      C      0.504500000000     0.206940000000     0.363770000000    -0.0417607  
C50      C      0.495010000000     0.309240000000     0.159480000000    -0.0424576  
C51      C      0.484040000000     0.396140000000     0.183020000000     0.0210169  
C52      C      0.476130000000     0.339630000000     0.128120000000     0.0305929  
C53      C      0.535820000000     0.280140000000     0.241860000000    -0.0546519  
C54      C      0.470570000000     0.237960000000     0.281260000000    -0.0558636  
C55      C      0.494330000000     0.290560000000     0.232300000000     0.0626556  
C56      C      0.502220000000     0.362930000000     0.211930000000    -0.0394855  
C57      C      0.512050000000     0.228420000000     0.291650000000     0.064659   
C58      C      0.512520000000     0.155040000000     0.309610000000    -0.0695984  
C59      C      0.544450000000     0.249500000000     0.271490000000    -0.0513524  
C60      C      0.532410000000     0.124000000000     0.340070000000     0.147273   
C61      C      0.524460000000     0.178660000000     0.396350000000     0.0320583  
C62      C      0.461920000000     0.268970000000     0.251970000000    -0.0526138  
C63      C      0.501810000000     0.864510000000     0.299100000000    -0.0455177  
C64      C      0.507310000000     0.659040000000     0.199790000000    -0.0407412  
C65      C      0.490610000000     0.678710000000     0.112620000000     0.0191206  
C66      C      0.490490000000     0.625010000000     0.171210000000     0.0202811  
C67      C      0.466150000000     0.749490000000     0.237680000000    -0.0533342  
C68      C      0.547220000000     0.775660000000     0.255510000000    -0.0525293  
C69      C      0.499730000000     0.731710000000     0.216310000000     0.0611269  
C70      C      0.507110000000     0.710040000000     0.144360000000    -0.040291   
C71      C      0.513630000000     0.793540000000     0.276760000000     0.0641037  
C72      C      0.512140000000     0.809940000000     0.350270000000    -0.0676712  
C73      C      0.472910000000     0.780060000000     0.267830000000    -0.0568222  
C74      C      0.530020000000     0.840390000000     0.382190000000     0.140335   
C75      C      0.518070000000     0.897790000000     0.329020000000     0.0383019  
C76      C      0.540490000000     0.744870000000     0.225610000000    -0.0550435  
C77      C      0.498100000000     0.700750000000     0.850460000000    -0.0427242  
C78      C      0.500760000000     0.800100000000     0.643410000000    -0.0383815  
C79      C      0.496860000000     0.886650000000     0.670550000000     0.0113929  
C80      C      0.484860000000     0.833010000000     0.612750000000     0.019377   
C81      C      0.536790000000     0.764240000000     0.725620000000    -0.054682   
C82      C      0.467350000000     0.731260000000     0.766620000000    -0.0545869  
C83      C      0.496740000000     0.779170000000     0.715890000000     0.0641052  
C84      C      0.511990000000     0.850720000000     0.697770000000    -0.0347019  
C85      C      0.507520000000     0.717380000000     0.777400000000     0.0639287  
C86      C      0.498140000000     0.645780000000     0.799130000000    -0.0709922  
C87      C      0.542000000000     0.733770000000     0.756280000000    -0.0500494  
C88      C      0.513870000000     0.613490000000     0.830630000000     0.14649    
C89      C      0.513420000000     0.671710000000     0.884960000000     0.0293773  
C90      C      0.462180000000     0.762070000000     0.736290000000    -0.0516541  
C91      C      0.491150000000     0.351010000000     0.811920000000    -0.0478711  
C92      C      0.504360000000     0.145630000000     0.713170000000    -0.041246   
C93      C      0.494020000000     0.171810000000     0.626620000000     0.0305275  
C94      C      0.490280000000     0.113520000000     0.681030000000     0.0230693  
C95      C      0.533560000000     0.229020000000     0.748620000000    -0.0556991  
C96      C      0.461930000000     0.266140000000     0.781510000000    -0.0549132  
C97      C      0.494070000000     0.217150000000     0.733820000000     0.0643186  
C98      C      0.508280000000     0.200330000000     0.661800000000    -0.0423816  
C99      C      0.501450000000     0.278420000000     0.795870000000     0.0638289  
C100     C      0.488010000000     0.299960000000     0.866970000000    -0.0713343  
C101     C      0.537070000000     0.259480000000     0.779390000000    -0.0499933  
C102     C      0.503030000000     0.330840000000     0.899980000000     0.145541   
C103     C      0.505780000000     0.385190000000     0.841480000000     0.0417065  
C104     C      0.458420000000     0.235730000000     0.750660000000    -0.0530754  
C105     C      0.701450000000     0.150850000000     0.497730000000    -0.0441427  
C106     C      0.800670000000     0.356130000000     0.511720000000    -0.0445186  
C107     C      0.888330000000     0.332540000000     0.509070000000     0.0378151  
C108     C      0.833500000000     0.387850000000     0.524940000000     0.0290932  
C109     C      0.773880000000     0.256530000000     0.548520000000    -0.0521096  
C110     C      0.730160000000     0.248920000000     0.473590000000    -0.0503066  
C111     C      0.783320000000     0.283020000000     0.515160000000     0.0626221  
C112     C      0.852690000000     0.304140000000     0.495770000000    -0.0467515  
C113     C      0.720090000000     0.223120000000     0.507220000000     0.0659352  
C114     C      0.654520000000     0.196460000000     0.534400000000    -0.0735464  
C115     C      0.742720000000     0.226480000000     0.544590000000    -0.0564575  
C116     C      0.615630000000     0.174030000000     0.518850000000     0.154599   
C117     C      0.665940000000     0.123700000000     0.481290000000     0.0357488  
C118     C      0.761740000000     0.278430000000     0.477250000000    -0.0544803  
C119     C      0.703590000000     0.859870000000     0.518230000000    -0.0457206  
C120     C      0.848800000000     0.692040000000     0.485010000000    -0.0417138  
C121     C      0.843670000000     0.624560000000     0.544800000000     0.0127745  
C122     C      0.888810000000     0.670780000000     0.499270000000     0.0230953  
C123     C      0.796180000000     0.765700000000     0.511180000000    -0.0511048  
C124     C      0.712700000000     0.743100000000     0.516290000000    -0.0502968  
C125     C      0.786020000000     0.723330000000     0.514350000000     0.0617352  
C126     C      0.806310000000     0.650700000000     0.531240000000    -0.0367877  
C127     C      0.722810000000     0.785400000000     0.512010000000     0.0645131  
C128     C      0.657610000000     0.811940000000     0.483090000000    -0.0691864  
C129     C      0.765340000000     0.796080000000     0.508320000000    -0.0533065  
C130     C      0.618690000000     0.835520000000     0.496810000000     0.143461   
C131     C      0.667440000000     0.888800000000     0.529420000000     0.0405916  
C132     C      0.743430000000     0.712460000000     0.515730000000    -0.0514668  
C133     C      0.298420000000     0.151030000000     0.478270000000    -0.0422825  
C134     C      0.200510000000     0.358540000000     0.480070000000    -0.0484077  
C135     C      0.114380000000     0.337010000000     0.461980000000     0.033316   
C136     C      0.170390000000     0.391960000000     0.464280000000     0.0374681  
C137     C      0.239170000000     0.266680000000     0.439490000000    -0.0533928  
C138     C      0.257490000000     0.242290000000     0.521080000000    -0.0505363  
C139     C      0.218610000000     0.285830000000     0.472870000000     0.0625263  
C140     C      0.146190000000     0.305940000000     0.478680000000    -0.0451192  
C141     C      0.277930000000     0.223030000000     0.487710000000     0.0636902  
C142     C      0.350860000000     0.204460000000     0.484810000000    -0.0705605  
C143     C      0.268710000000     0.235590000000     0.446710000000    -0.0557851  
C144     C      0.382510000000     0.174530000000     0.503990000000     0.146353   
C145     C      0.327400000000     0.117580000000     0.495960000000     0.0289332  
C146     C      0.228100000000     0.273480000000     0.513890000000    -0.0548898  
C147     C      0.150760000000     0.705420000000     0.489890000000    -0.0431347  
C148     C      0.356410000000     0.804420000000     0.504500000000    -0.0413098  
C149     C      0.333240000000     0.890950000000     0.490100000000     0.0219368  
C150     C      0.389930000000     0.835000000000     0.490360000000     0.0216767  
C151     C      0.266420000000     0.767720000000     0.457370000000    -0.053431   
C152     C      0.240910000000     0.741810000000     0.536540000000    -0.0511661  
C153     C      0.284590000000     0.785420000000     0.492830000000     0.0623909  
C154     C      0.302970000000     0.857300000000     0.504400000000    -0.041436   
C155     C      0.222740000000     0.724110000000     0.501080000000     0.0638463  
C156     C      0.203910000000     0.652330000000     0.489190000000    -0.0711811  
C157     C      0.235710000000     0.737270000000     0.461310000000    -0.0561289  
C158     C      0.173810000000     0.618620000000     0.504010000000     0.14615    
C159     C      0.117230000000     0.675010000000     0.504380000000     0.0305179  
C160     C      0.271600000000     0.772270000000     0.532610000000    -0.0552573  
C161     C      0.842440000000     0.510000000000     0.316000000000    -0.0457546  
C162     C      0.636480000000     0.511280000000     0.215280000000    -0.0400192  
C163     C      0.664400000000     0.528640000000     0.130600000000     0.0133365  
C164     C      0.605290000000     0.527660000000     0.183020000000     0.0183416  
C165     C      0.727300000000     0.551150000000     0.259310000000    -0.0531863  
C166     C      0.749470000000     0.469620000000     0.279720000000    -0.0519182  
C167     C      0.708010000000     0.517960000000     0.238630000000     0.061074   
C168     C      0.692850000000     0.512030000000     0.164990000000    -0.038022   
C169     C      0.769240000000     0.502810000000     0.299910000000     0.0632051  
C170     C      0.791930000000     0.508290000000     0.371940000000    -0.0681364  
C171     C      0.757610000000     0.543790000000     0.289750000000    -0.0561481  
C172     C      0.823860000000     0.491010000000     0.403070000000     0.139924   
C173     C      0.876970000000     0.492900000000     0.344000000000     0.0376762  
C174     C      0.719080000000     0.476980000000     0.249380000000    -0.054927   
C175     C      0.294590000000     0.523160000000     0.144280000000    -0.0427886  
C176     C      0.192800000000     0.483270000000     0.345940000000    -0.0476294  
C177     C      0.105060000000     0.501150000000     0.330190000000     0.0378304  
C178     C      0.165310000000     0.495400000000     0.382800000000     0.0367473  
C179     C      0.228760000000     0.538150000000     0.262540000000    -0.0529266  
C180     C      0.247260000000     0.462810000000     0.223350000000    -0.0525217  
C181     C      0.207770000000     0.501940000000     0.274680000000     0.0606728  
C182     C      0.136560000000     0.489110000000     0.296610000000    -0.0481032  
C183     C      0.268270000000     0.498990000000     0.211250000000     0.0653165  
C184     C      0.342340000000     0.501020000000     0.198050000000    -0.0668456  
C185     C      0.258990000000     0.536780000000     0.231230000000    -0.0574484  
C186     C      0.374530000000     0.485750000000     0.166540000000     0.138104   
C187     C      0.324810000000     0.510840000000     0.109440000000     0.0336671  
C188     C      0.217380000000     0.464070000000     0.254940000000    -0.0541936  
C189     C      0.164520000000     0.489190000000     0.698930000000    -0.040844   
C190     C      0.370480000000     0.471090000000     0.797690000000    -0.0461714  
C191     C      0.342990000000     0.485410000000     0.883370000000     0.031853   
C192     C      0.402740000000     0.485580000000     0.829720000000     0.0356957  
C193     C      0.281770000000     0.519470000000     0.757850000000    -0.0510974  
C194     C      0.255410000000     0.441400000000     0.730220000000    -0.051503   
C195     C      0.299400000000     0.483620000000     0.775230000000     0.0629196  
C196     C      0.314860000000     0.470660000000     0.847950000000    -0.0437037  
C197     C      0.237350000000     0.477280000000     0.713270000000     0.0640889  
C198     C      0.214480000000     0.491420000000     0.642530000000    -0.0703452  
C199     C      0.251050000000     0.516490000000     0.727140000000    -0.0547454  
C200     C      0.181550000000     0.479320000000     0.610040000000     0.146303   
C201     C      0.129040000000     0.476860000000     0.669680000000     0.0251013  
C202     C      0.286200000000     0.444390000000     0.760930000000    -0.0548024  
C203     C      0.871700000000     0.485420000000     0.716050000000    -0.0382563  
C204     C      0.665780000000     0.492280000000     0.816730000000    -0.0450113  
C205     C      0.682690000000     0.476760000000     0.904620000000     0.0181793  
C206     C      0.630620000000     0.477360000000     0.845140000000     0.0331067  
C207     C      0.756440000000     0.449780000000     0.780420000000    -0.0521444  
C208     C      0.783460000000     0.530420000000     0.762660000000    -0.0505934  
C209     C      0.738810000000     0.483470000000     0.801810000000     0.0624079  
C210     C      0.715710000000     0.491320000000     0.873440000000    -0.0396172  
C211     C      0.800920000000     0.496790000000     0.741170000000     0.0652558  
C212     C      0.815620000000     0.496540000000     0.666940000000    -0.0653474  
C213     C      0.787180000000     0.456260000000     0.750180000000    -0.0560433  
C214     C      0.844320000000     0.517750000000     0.635430000000     0.136827   
C215     C      0.903990000000     0.503660000000     0.685860000000     0.0196243  
C216     C      0.752590000000     0.523990000000     0.792610000000    -0.0537629  
C217     C      0.804420000000     0.856990000000     0.014180000000    -0.0655437  
C218     C      0.703020000000     0.651570000000     0.011760000000    -0.0526118  
C219     C      0.616160000000     0.674180000000     0.025370000000     0.0212759  
C220     C      0.672380000000     0.618690000000     0.027630000000     0.0172701  
C221     C      0.742010000000     0.743020000000     0.052580000000    -0.0533739  
C222     C      0.764520000000     0.765760000000     0.971560000000    -0.0373172  
C223     C      0.722090000000     0.724060000000     0.018650000000     0.0502398  
C224     C      0.649510000000     0.704550000000     0.009810000000    -0.0540803  
C225     C      0.784320000000     0.784830000000     0.005480000000     0.0435212  
C226     C      0.857320000000     0.803530000000     0.012170000000    -0.089895   
C227     C      0.772890000000     0.773080000000     0.046200000000    -0.051323   
C228     C      0.890350000000     0.833800000000     0.995500000000     0.165259   
C229     C      0.834620000000     0.890110000000     0.997970000000     0.0578914  
C230     C      0.733750000000     0.735610000000     0.977940000000    -0.0454405  
C231     C      0.856420000000     0.203350000000     0.019280000000    -0.0440931  
C232     C      0.652030000000     0.304070000000     0.010550000000    -0.0592582  
C233     C      0.675670000000     0.390420000000     0.025000000000     0.0227097  
C234     C      0.619160000000     0.334710000000     0.025870000000     0.0368084  
C235     C      0.742100000000     0.265520000000     0.054570000000    -0.0497757  
C236     C      0.766320000000     0.241680000000     0.974330000000    -0.0408164  
C237     C      0.723940000000     0.284670000000     0.019870000000     0.0504467  
C238     C      0.705740000000     0.356900000000     0.009910000000    -0.0542116  
C239     C      0.784580000000     0.222640000000     0.009030000000     0.054444   
C240     C      0.803020000000     0.150370000000     0.018100000000    -0.0681308  
C241     C      0.772190000000     0.234680000000     0.049340000000    -0.0552913  
C242     C      0.833300000000     0.117110000000     0.002520000000     0.135165   
C243     C      0.889750000000     0.173290000000     0.003840000000     0.0300389  
C244     C      0.736170000000     0.272460000000     0.979560000000    -0.0432187  
C245     C      0.357690000000     0.704950000000     0.995890000000    -0.0271518  
C246     C      0.151410000000     0.802550000000     0.010890000000    -0.0576064  
C247     C      0.175380000000     0.888210000000     0.028100000000     0.0375631  
C248     C      0.119640000000     0.832470000000     0.029820000000     0.0307713  
C249     C      0.245720000000     0.762790000000     0.044500000000    -0.0420113  
C250     C      0.263240000000     0.744280000000     0.961150000000    -0.0624666  
C251     C      0.224150000000     0.783500000000     0.012790000000     0.043444   
C252     C      0.204800000000     0.856020000000     0.009210000000    -0.0590751  
C253     C      0.284930000000     0.723680000000     0.992860000000     0.0831785  
C254     C      0.304530000000     0.651230000000     0.995670000000    -0.0556172  
C255     C      0.275860000000     0.733050000000     0.034770000000    -0.0769833  
C256     C      0.334540000000     0.619190000000     0.977180000000     0.142159   
C257     C      0.390070000000     0.675470000000     0.977340000000     0.0237285  
C258     C      0.233040000000     0.773960000000     0.970890000000    -0.0339569  
C259     C      0.359470000000     0.301970000000     0.983820000000    -0.0418029  
C260     C      0.153840000000     0.203450000000     0.015950000000    -0.0503821  
C261     C      0.175350000000     0.115920000000     0.005090000000     0.0249488  
C262     C      0.119030000000     0.172540000000     0.005590000000     0.0237747  
C263     C      0.241390000000     0.236690000000     0.960930000000    -0.051919   
C264     C      0.271480000000     0.267750000000     0.036470000000    -0.0653132  
C265     C      0.225140000000     0.221330000000     0.998490000000     0.0735516  
C266     C      0.206580000000     0.150250000000     0.015780000000    -0.050942   
C267     C      0.287610000000     0.283200000000     0.998940000000     0.0837605  
C268     C      0.306200000000     0.354460000000     0.981180000000    -0.0629136  
C269     C      0.272380000000     0.267340000000     0.961010000000    -0.0603879  
C270     C      0.335700000000     0.389100000000     0.995330000000     0.147896   
C271     C      0.393240000000     0.333500000000     0.996010000000     0.0509433  
C272     C      0.240590000000     0.237080000000     0.036400000000    -0.0632108  
C273     C      0.688220000000     0.988610000000     0.667740000000    -0.0280871  
C274     C      0.853460000000     0.025450000000     0.812830000000    -0.0477799  
C275     C      0.835100000000     0.987910000000     0.893480000000     0.0342156  
C276     C      0.882480000000     0.033780000000     0.849620000000     0.0163353  
C277     C      0.737020000000     0.012960000000     0.804730000000    -0.0512057  
C278     C      0.758390000000     0.021400000000     0.721070000000    -0.0515122  
C279     C      0.779460000000     0.014600000000     0.793910000000     0.0606004  
C280     C      0.810850000000     0.978840000000     0.853460000000    -0.0350161  
C281     C      0.716100000000     0.018070000000     0.731700000000     0.0608323  
C282     C      0.641410000000     0.026680000000     0.712410000000    -0.0765521  
C283     C      0.705880000000     0.013130000000     0.774240000000    -0.0523389  
C284     C      0.612750000000     0.037940000000     0.675560000000     0.134139   
C285     C      0.665900000000     0.002320000000     0.628260000000     0.0184122  
C286     C      0.789540000000     0.018040000000     0.751140000000    -0.053447   
C287     C      0.296660000000     0.999560000000     0.641630000000    -0.0320101  
C288     C      0.201640000000     0.995440000000     0.850640000000    -0.0111399  
C289     C      0.113200000000     0.000170000000     0.830030000000    -0.00466208 
C290     C      0.171590000000     0.012250000000     0.883510000000     0.00498459 
C291     C      0.234580000000     0.032820000000     0.756900000000    -0.0641485  
C292     C      0.258390000000     0.952450000000     0.733930000000    -0.0513868  
C293     C      0.216820000000     0.998560000000     0.777070000000     0.0813251  
C294     C      0.146720000000     0.984260000000     0.800500000000    -0.0175101  
C295     C      0.275620000000     0.986680000000     0.713280000000     0.0738331  
C296     C      0.348530000000     0.989730000000     0.695870000000    -0.0534238  
C297     C      0.264100000000     0.027090000000     0.725490000000    -0.0634045  
C298     C      0.380200000000     0.972500000000     0.664900000000     0.131387   
C299     C      0.326740000000     0.984470000000     0.607850000000     0.0346842  
C300     C      0.229450000000     0.958190000000     0.765840000000    -0.0595907  
C301     C      0.206160000000     0.023310000000     0.144380000000    -0.0586499  
C302     C      0.305540000000     0.021790000000     0.349500000000    -0.0389864  
C303     C      0.391910000000     0.002450000000     0.329010000000     0.020224   
C304     C      0.333660000000     0.003540000000     0.383150000000     0.0121402  
C305     C      0.266100000000     0.982920000000     0.258410000000    -0.0431419  
C306     C      0.249310000000     0.064780000000     0.234400000000    -0.0518036  
C307     C      0.288260000000     0.015630000000     0.276720000000     0.0517459  
C308     C      0.360560000000     0.020370000000     0.297960000000    -0.0421098  
C309     C      0.227170000000     0.032060000000     0.216080000000     0.0542718  
C310     C      0.153890000000     0.030130000000     0.198910000000    -0.083651   
C311     C      0.235720000000     0.990930000000     0.228370000000    -0.0475727  
C312     C      0.121620000000     0.046800000000     0.168000000000     0.15195    
C313     C      0.176030000000     0.039540000000     0.111370000000     0.046083   
C314     C      0.279580000000     0.056790000000     0.264600000000    -0.054272   
C315     C      0.859480000000     0.997540000000     0.210510000000    -0.0134449  
C316     C      0.656150000000     0.024640000000     0.310620000000    -0.0461468  
C317     C      0.675710000000     0.015850000000     0.399080000000     0.0277696  
C318     C      0.621410000000     0.012010000000     0.340560000000     0.0306176  
C319     C      0.743790000000     0.050800000000     0.281530000000    -0.0536789  
C320     C      0.773890000000     0.977720000000     0.245090000000    -0.0472226  
C321     C      0.728330000000     0.012040000000     0.294770000000     0.0535291  
C322     C      0.707210000000     0.028270000000     0.365610000000    -0.0446438  
C323     C      0.789800000000     0.016440000000     0.232350000000     0.0553049  
C324     C      0.805540000000     0.007610000000     0.159110000000    -0.0780992  
C325     C      0.774430000000     0.052820000000     0.250710000000    -0.0495275  
C326     C      0.836520000000     0.021400000000     0.125580000000     0.140467   
C327     C      0.893880000000     0.010080000000     0.180110000000     0.00944817 
C328     C      0.743540000000     0.975670000000     0.276210000000    -0.0440702  
C329     C      0.008430000000     0.200150000000     0.854410000000    -0.0526484  
C330     C      0.029610000000     0.299730000000     0.650410000000    -0.0444689  
C331     C      0.010880000000     0.385000000000     0.675440000000     0.0145906  
C332     C      0.013960000000     0.329980000000     0.617380000000     0.0289142  
C333     C      0.982470000000     0.257290000000     0.736150000000    -0.048172   
C334     C      0.061360000000     0.239150000000     0.768230000000    -0.0515673  
C335     C      0.017340000000     0.278750000000     0.721380000000     0.0572233  
C336     C      0.026360000000     0.351370000000     0.704970000000    -0.0392186  
C337     C      0.026350000000     0.218430000000     0.783720000000     0.0592941  
C338     C      0.023040000000     0.146150000000     0.803490000000    -0.0727824  
C339     C      0.986830000000     0.227090000000     0.766960000000    -0.0515809  
C340     C      0.037980000000     0.116120000000     0.837140000000     0.137555   
C341     C      0.021470000000     0.172180000000     0.890480000000     0.0424259  
C342     C      0.057070000000     0.268990000000     0.737060000000    -0.0548825  
C343     C      0.990900000000     0.851330000000     0.809950000000    -0.028752   
C344     C      0.009510000000     0.646170000000     0.709580000000    -0.0481167  
C345     C      0.988600000000     0.668580000000     0.624010000000     0.0333291  
C346     C      0.995760000000     0.612110000000     0.679190000000     0.026292   
C347     C      0.035200000000     0.732510000000     0.740730000000    -0.0637661  
C348     C      0.964910000000     0.764280000000     0.781240000000    -0.0461933  
C349     C      0.995440000000     0.717250000000     0.730280000000     0.071318   
C350     C      0.002780000000     0.699760000000     0.657140000000    -0.056266   
C351     C      0.004660000000     0.779650000000     0.791550000000     0.0556619  
C352     C      0.996810000000     0.799590000000     0.864140000000    -0.0510023  
C353     C      0.039610000000     0.763420000000     0.771100000000    -0.0462611  
C354     C      0.011480000000     0.831610000000     0.896440000000     0.125193   
C355     C      0.005260000000     0.886320000000     0.838900000000     0.0090692  
C356     C      0.960490000000     0.733360000000     0.750860000000    -0.0561784  
C357     C      0.008490000000     0.805840000000     0.158200000000    -0.0490966  
C358     C      0.008710000000     0.707090000000     0.363690000000    -0.0530734  
C359     C      0.985190000000     0.622820000000     0.339830000000     0.0417121  
C360     C      0.991410000000     0.677670000000     0.396720000000     0.0372384  
C361     C      0.041160000000     0.736710000000     0.279680000000    -0.0533729  
C362     C      0.974700000000     0.779300000000     0.242950000000    -0.0522625  
C363     C      0.000020000000     0.727790000000     0.291920000000     0.0517527  
C364     C      0.002830000000     0.654870000000     0.309510000000    -0.0610057  
C365     C      0.015830000000     0.788300000000     0.230740000000     0.0584021  
C366     C      0.010730000000     0.860450000000     0.210360000000    -0.0771495  
C367     C      0.048860000000     0.766820000000     0.249330000000    -0.0528929  
C368     C      0.026880000000     0.892320000000     0.178850000000     0.147495   
C369     C      0.025120000000     0.834720000000     0.124400000000     0.0309135  
C370     C      0.967020000000     0.749300000000     0.273370000000    -0.0473903  
C371     C      0.033960000000     0.205660000000     0.149210000000    -0.0471744  
C372     C      0.004120000000     0.308780000000     0.352180000000    -0.052445   
C373     C      0.027980000000     0.394660000000     0.335540000000     0.0354446  
C374     C      0.017610000000     0.336440000000     0.388520000000     0.0324788  
C375     C      0.056400000000     0.268400000000     0.267900000000    -0.0507343  
C376     C      0.979090000000     0.253140000000     0.230980000000    -0.0476256  
C377     C      0.021550000000     0.291170000000     0.280990000000     0.0545308  
C378     C      0.014760000000     0.363590000000     0.301790000000    -0.0527177  
C379     C      0.013910000000     0.230310000000     0.217960000000     0.0589479  
C380     C      0.015400000000     0.156490000000     0.202950000000    -0.0779398  
C381     C      0.052740000000     0.238150000000     0.236760000000    -0.0568709  
C382     C      0.000560000000     0.124100000000     0.171130000000     0.145112   
C383     C      0.020220000000     0.176190000000     0.114290000000     0.0390388  
C384     C      0.982700000000     0.283240000000     0.262250000000    -0.0490172  
H1       H      0.975810000000     0.974150000000     0.038740000000    -1.21791    
H2       H      0.030460000000     0.028260000000     0.029860000000    -1.06863    
H3       H      0.967060000000     0.072610000000     0.967680000000    -0.509955   
H4       H      0.074580000000     0.963650000000     0.968450000000    -0.521118   
H5       H      0.971750000000     0.533280000000     0.478810000000    -1.24844    
H6       H      0.026610000000     0.479030000000     0.480180000000    -1.08293    
H7       H      0.968610000000     0.432250000000     0.545250000000    -0.543006   
H8       H      0.076350000000     0.539790000000     0.541010000000    -0.528195   
H9       H      0.473370000000     0.976410000000     0.471100000000    -1.25395    
H10      H      0.526500000000     0.031540000000     0.481950000000    -1.06569    
H11      H      0.570090000000     0.967890000000     0.544250000000    -0.505298   
H12      H      0.460390000000     0.073670000000     0.542610000000    -0.541285   
H13      H      0.470980000000     0.535440000000     0.032730000000    -1.22379    
H14      H      0.481210000000     0.478850000000     0.981070000000    -1.06251    
H15      H      0.538420000000     0.436430000000     0.050200000000    -0.524441   
H16      H      0.546970000000     0.539300000000     0.937390000000    -0.547043   
H17      H      0.429860000000     0.276250000000     0.244510000000     0.048707   
H18      H      0.510930000000     0.239800000000     0.372510000000     0.0453689  
H19      H      0.524700000000     0.149050000000     0.277680000000     0.0565699  
H20      H      0.451090000000     0.401120000000     0.191850000000     0.0504609  
H21      H      0.557740000000     0.187470000000     0.398480000000     0.0600623  
H22      H      0.482350000000     0.277700000000     0.152890000000     0.0379701  
H23      H      0.494870000000     0.371590000000     0.244700000000     0.0398579  
H24      H      0.487270000000     0.330950000000     0.096510000000     0.032074   
H25      H      0.521570000000     0.092360000000     0.331450000000     0.0173251  
H26      H      0.445000000000     0.221700000000     0.295990000000     0.0411767  
H27      H      0.509310000000     0.184540000000     0.426920000000     0.0477301  
H28      H      0.561460000000     0.295730000000     0.226560000000     0.0429004  
H29      H      0.470160000000     0.202150000000     0.363890000000     0.0381165  
H30      H      0.500960000000     0.425800000000     0.188460000000     0.036302   
H31      H      0.529420000000     0.308170000000     0.155240000000     0.0399098  
H32      H      0.536700000000     0.362550000000     0.208350000000     0.0389919  
H33      H      0.576510000000     0.242170000000     0.278900000000     0.0553033  
H34      H      0.478210000000     0.150060000000     0.308860000000     0.0425613  
H35      H      0.441730000000     0.335760000000     0.128340000000     0.0386459  
H36      H      0.567010000000     0.731240000000     0.209930000000     0.0416531  
H37      H      0.508860000000     0.874480000000     0.266640000000     0.0388338  
H38      H      0.525840000000     0.778620000000     0.355780000000     0.0584527  
H39      H      0.456790000000     0.684360000000     0.107900000000     0.0249324  
H40      H      0.550800000000     0.905300000000     0.320620000000     0.0375278  
H41      H      0.496790000000     0.652310000000     0.232160000000     0.0370491  
H42      H      0.496310000000     0.741590000000     0.135100000000     0.0354491  
H43      H      0.506140000000     0.595340000000     0.179650000000     0.036468   
H44      H      0.519860000000     0.830270000000     0.413710000000     0.0251058  
H45      H      0.578720000000     0.785490000000     0.262410000000     0.0529565  
H46      H      0.499270000000     0.926430000000     0.324320000000     0.0275052  
H47      H      0.434680000000     0.739360000000     0.231100000000     0.0438215  
H48      H      0.467390000000     0.862130000000     0.302460000000     0.0371745  
H49      H      0.506420000000     0.684620000000     0.082360000000     0.034688   
H50      H      0.541990000000     0.658350000000     0.199380000000     0.0396187  
H51      H      0.541770000000     0.709810000000     0.143510000000     0.0383945  
H52      H      0.446500000000     0.793020000000     0.284240000000     0.0406909  
H53      H      0.477840000000     0.807430000000     0.354780000000     0.0436873  
H54      H      0.456640000000     0.621070000000     0.177270000000     0.0270487  
H55      H      0.431160000000     0.773010000000     0.728930000000     0.0521432  
H56      H      0.509160000000     0.732760000000     0.857580000000     0.0403696  
H57      H      0.508520000000     0.636640000000     0.767310000000     0.0600408  
H58      H      0.465180000000     0.895540000000     0.680800000000     0.0549578  
H59      H      0.547110000000     0.677610000000     0.890330000000     0.0394142  
H60      H      0.485800000000     0.769890000000     0.635550000000     0.043129   
H61      H      0.505580000000     0.858640000000     0.730940000000     0.0406058  
H62      H      0.497420000000     0.825660000000     0.581330000000     0.0516642  
H63      H      0.496930000000     0.583940000000     0.824640000000     0.0172045  
H64      H      0.440130000000     0.718750000000     0.782020000000     0.0449452  
H65      H      0.496780000000     0.679910000000     0.914210000000     0.0362977  
H66      H      0.563980000000     0.776570000000     0.710020000000     0.0468422  
H67      H      0.463430000000     0.701090000000     0.850570000000     0.0419377  
H68      H      0.517450000000     0.913840000000     0.676330000000     0.0426159  
H69      H      0.535040000000     0.796380000000     0.639630000000     0.0528925  
H70      H      0.546290000000     0.847300000000     0.694020000000     0.0421296  
H71      H      0.573050000000     0.723120000000     0.763950000000     0.0546791  
H72      H      0.463450000000     0.645780000000     0.799130000000     0.0483352  
H73      H      0.450390000000     0.830550000000     0.610740000000     0.0414846  
H74      H      0.427870000000     0.226840000000     0.739520000000     0.0491575  
H75      H      0.503540000000     0.357890000000     0.780250000000     0.0401444  
H76      H      0.497180000000     0.267950000000     0.876460000000     0.0586718  
H77      H      0.460910000000     0.178740000000     0.619590000000     0.0492363  
H78      H      0.539620000000     0.390560000000     0.836420000000     0.033827   
H79      H      0.491440000000     0.136620000000     0.744070000000     0.0396972  
H80      H      0.498570000000     0.232660000000     0.654130000000     0.0436071  
H81      H      0.506660000000     0.083790000000     0.687670000000     0.0423042  
H82      H      0.484590000000     0.325460000000     0.928810000000     0.0195756  
H83      H      0.433970000000     0.280310000000     0.793840000000     0.0409936  
H84      H      0.489390000000     0.414420000000     0.833010000000     0.0310746  
H85      H      0.561550000000     0.215070000000     0.736100000000     0.047889   
H86      H      0.456510000000     0.351360000000     0.810180000000     0.0371006  
H87      H      0.512470000000     0.179340000000     0.598260000000     0.042268   
H88      H      0.538960000000     0.145200000000     0.715490000000     0.0519493  
H89      H      0.542900000000     0.199670000000     0.663820000000     0.0480125  
H90      H      0.567640000000     0.268680000000     0.790240000000     0.0539141  
H91      H      0.453370000000     0.300850000000     0.865390000000     0.0420793  
H92      H      0.456390000000     0.107760000000     0.685160000000     0.0340664  
H93      H      0.769060000000     0.297790000000     0.450680000000     0.0481929  
H94      H      0.727700000000     0.149290000000     0.475110000000     0.0386518  
H95      H      0.646790000000     0.229500000000     0.541300000000     0.0623978  
H96      H      0.898880000000     0.323290000000     0.540760000000     0.0255981  
H97      H      0.662290000000     0.129640000000     0.447340000000     0.0331496  
H98      H      0.771550000000     0.362500000000     0.529410000000     0.0428322  
H99      H      0.862440000000     0.271350000000     0.501080000000     0.0378123  
H100     H      0.823780000000     0.418950000000     0.513370000000     0.0472073  
H101     H      0.593280000000     0.171460000000     0.545250000000     0.0191152  
H102     H      0.713330000000     0.246140000000     0.444470000000     0.0555026  
H103     H      0.675270000000     0.090610000000     0.484600000000     0.0343406  
H104     H      0.790730000000     0.259300000000     0.577620000000     0.0460205  
H105     H      0.712770000000     0.138440000000     0.528100000000     0.0402636  
H106     H      0.914850000000     0.327580000000     0.487320000000     0.0286131  
H107     H      0.793930000000     0.360360000000     0.477960000000     0.0568433  
H108     H      0.846590000000     0.308220000000     0.461820000000     0.0462833  
H109     H      0.735980000000     0.206300000000     0.570710000000     0.0446789  
H110     H      0.665110000000     0.181930000000     0.564090000000     0.051829   
H111     H      0.834090000000     0.389480000000     0.559560000000     0.02757    
H112     H      0.733190000000     0.680570000000     0.518100000000     0.0436254  
H113     H      0.727330000000     0.863410000000     0.543230000000     0.0390933  
H114     H      0.648700000000     0.779040000000     0.477720000000     0.060411   
H115     H      0.853270000000     0.635480000000     0.576180000000     0.0519317  
H116     H      0.660830000000     0.885680000000     0.563300000000     0.0359536  
H117     H      0.857300000000     0.723630000000     0.474020000000     0.0349239  
H118     H      0.784350000000     0.651400000000     0.558050000000     0.0451573  
H119     H      0.910430000000     0.668400000000     0.472260000000     0.028398   
H120     H      0.595100000000     0.833430000000     0.471630000000     0.0380836  
H121     H      0.680680000000     0.733560000000     0.520650000000     0.0541176  
H122     H      0.677720000000     0.921380000000     0.524170000000     0.0300552  
H123     H      0.828390000000     0.775600000000     0.511470000000     0.0433011  
H124     H      0.717410000000     0.870120000000     0.488080000000     0.0405299  
H125     H      0.833950000000     0.591510000000     0.547480000000     0.0526886  
H126     H      0.835110000000     0.675040000000     0.458040000000     0.0396316  
H127     H      0.790710000000     0.635360000000     0.504310000000     0.0397246  
H128     H      0.775600000000     0.827870000000     0.504900000000     0.0410892  
H129     H      0.669000000000     0.824390000000     0.452760000000     0.0598471  
H130     H      0.904050000000     0.690240000000     0.523530000000     0.0352057  
H131     H      0.212780000000     0.287870000000     0.540230000000     0.0476998  
H132     H      0.265750000000     0.142370000000     0.485910000000     0.0375299  
H133     H      0.357390000000     0.236510000000     0.496190000000     0.0599339  
H134     H      0.113680000000     0.333880000000     0.427520000000     0.0213764  
H135     H      0.317990000000     0.110820000000     0.528620000000     0.037512   
H136     H      0.232380000000     0.366410000000     0.469000000000     0.0427347  
H137     H      0.137810000000     0.274450000000     0.466990000000     0.0364803  
H138     H      0.178770000000     0.421970000000     0.479220000000     0.0423334  
H139     H      0.413650000000     0.182340000000     0.491020000000     0.0182499  
H140     H      0.264520000000     0.233130000000     0.552790000000     0.0543882  
H141     H      0.322790000000     0.088570000000     0.477680000000     0.0324378  
H142     H      0.232250000000     0.275950000000     0.407800000000     0.0451393  
H143     H      0.301540000000     0.151760000000     0.443700000000     0.0369261  
H144     H      0.083140000000     0.328690000000     0.474260000000     0.0332519  
H145     H      0.200710000000     0.358830000000     0.514770000000     0.0570842  
H146     H      0.144640000000     0.305500000000     0.513360000000     0.0433704  
H147     H      0.284370000000     0.221460000000     0.420430000000     0.0409548  
H148     H      0.354610000000     0.204640000000     0.450290000000     0.0443635  
H149     H      0.174810000000     0.395550000000     0.430090000000     0.0212882  
H150     H      0.285120000000     0.785550000000     0.560480000000     0.0455389  
H151     H      0.142470000000     0.736980000000     0.501470000000     0.0382733  
H152     H      0.236030000000     0.644200000000     0.499420000000     0.0588328  
H153     H      0.328140000000     0.896990000000     0.456350000000     0.0279171  
H154     H      0.110900000000     0.680510000000     0.538010000000     0.0376399  
H155     H      0.364990000000     0.772900000000     0.493050000000     0.0389085  
H156     H      0.271300000000     0.865520000000     0.492960000000     0.0379062  
H157     H      0.419090000000     0.827820000000     0.507630000000     0.0395176  
H158     H      0.180680000000     0.589870000000     0.486020000000     0.0160641  
H159     H      0.231200000000     0.731890000000     0.567300000000     0.0534007  
H160     H      0.088020000000     0.681980000000     0.487110000000     0.0324432  
H161     H      0.276120000000     0.777630000000     0.426610000000     0.0447725  
H162     H      0.151160000000     0.706450000000     0.455190000000     0.037385   
H163     H      0.325590000000     0.920070000000     0.507140000000     0.0393767  
H164     H      0.355660000000     0.803470000000     0.539200000000     0.0438733  
H165     H      0.302070000000     0.856630000000     0.539110000000     0.0441118  
H166     H      0.222130000000     0.724020000000     0.433450000000     0.0406654  
H167     H      0.203920000000     0.653140000000     0.454470000000     0.043788   
H168     H      0.396290000000     0.829870000000     0.456680000000     0.0276676  
H169     H      0.704720000000     0.450760000000     0.233910000000     0.0423914  
H170     H      0.848940000000     0.500130000000     0.283390000000     0.0377629  
H171     H      0.760250000000     0.497700000000     0.381160000000     0.0591241  
H172     H      0.669070000000     0.562780000000     0.127980000000     0.0305966  
H173     H      0.881050000000     0.459250000000     0.337240000000     0.0350799  
H174     H      0.626500000000     0.522110000000     0.246680000000     0.0375913  
H175     H      0.725050000000     0.523250000000     0.158850000000     0.0357049  
H176     H      0.574710000000     0.512560000000     0.188830000000     0.0362364  
H177     H      0.818160000000     0.506230000000     0.433660000000     0.0211378  
H178     H      0.758070000000     0.437950000000     0.287200000000     0.0524832  
H179     H      0.906510000000     0.508770000000     0.335470000000     0.0248156  
H180     H      0.719170000000     0.582830000000     0.251370000000     0.0447945  
H181     H      0.843070000000     0.544600000000     0.317040000000     0.0367385  
H182     H      0.674310000000     0.514510000000     0.100590000000     0.0376066  
H183     H      0.635810000000     0.476670000000     0.215130000000     0.039831   
H184     H      0.693090000000     0.477430000000     0.163740000000     0.0393732  
H185     H      0.772360000000     0.569990000000     0.304870000000     0.0406544  
H186     H      0.792220000000     0.542870000000     0.373560000000     0.0431177  
H187     H      0.601210000000     0.561640000000     0.187840000000     0.0309968  
H188     H      0.202120000000     0.435550000000     0.264190000000     0.0419358  
H189     H      0.262220000000     0.520280000000     0.132250000000     0.0396559  
H190     H      0.345660000000     0.482780000000     0.227370000000     0.0571166  
H191     H      0.097730000000     0.534790000000     0.326950000000     0.0214656  
H192     H      0.313440000000     0.481680000000     0.095010000000     0.0544129  
H193     H      0.225370000000     0.492720000000     0.353150000000     0.0386695  
H194     H      0.126530000000     0.503190000000     0.266550000000     0.0363444  
H195     H      0.172980000000     0.474780000000     0.409550000000     0.0314172  
H196     H      0.406030000000     0.493060000000     0.178860000000     0.0220964  
H197     H      0.254610000000     0.433410000000     0.208640000000     0.0570081  
H198     H      0.324120000000     0.535280000000     0.084920000000     0.0249709  
H199     H      0.222020000000     0.567380000000     0.277830000000     0.043767   
H200     H      0.299960000000     0.556270000000     0.152860000000     0.0352123  
H201     H      0.075670000000     0.483830000000     0.324320000000     0.0266375  
H202     H      0.192360000000     0.448860000000     0.341950000000     0.0389516  
H203     H      0.136470000000     0.454700000000     0.292790000000     0.037402   
H204     H      0.275380000000     0.564990000000     0.222980000000     0.0404871  
H205     H      0.348440000000     0.534240000000     0.205740000000     0.0428685  
H206     H      0.173190000000     0.527690000000     0.392390000000     0.0255669  
H207     H      0.299250000000     0.416210000000     0.773910000000     0.0415386  
H208     H      0.157800000000     0.476090000000     0.730340000000     0.0390033  
H209     H      0.245560000000     0.480460000000     0.631780000000     0.0618557  
H210     H      0.335240000000     0.518280000000     0.890680000000     0.0448348  
H211     H      0.123410000000     0.442890000000     0.672730000000     0.039703   
H212     H      0.380370000000     0.482210000000     0.766360000000     0.0399493  
H213     H      0.282540000000     0.481260000000     0.854630000000     0.0422302  
H214     H      0.431620000000     0.467000000000     0.825470000000     0.0303703  
H215     H      0.187600000000     0.497890000000     0.581440000000     0.0288241  
H216     H      0.245150000000     0.411020000000     0.719940000000     0.051943   
H217     H      0.100310000000     0.492990000000     0.680250000000     0.0360401  
H218     H      0.291540000000     0.549850000000     0.768610000000     0.0521137  
H219     H      0.165460000000     0.523690000000     0.701720000000     0.0430235  
H220     H      0.335690000000     0.466830000000     0.911680000000     0.0333121  
H221     H      0.369780000000     0.436470000000     0.796900000000     0.0372729  
H222     H      0.314670000000     0.436040000000     0.847020000000     0.03669    
H223     H      0.237590000000     0.544710000000     0.714680000000     0.0463635  
H224     H      0.215840000000     0.525940000000     0.644760000000     0.056128   
H225     H      0.410950000000     0.518490000000     0.823000000000     0.0301985  
H226     H      0.739180000000     0.550640000000     0.808180000000     0.046639   
H227     H      0.882430000000     0.491220000000     0.748520000000     0.0392613  
H228     H      0.783440000000     0.508830000000     0.662980000000     0.0586931  
H229     H      0.686040000000     0.442670000000     0.909180000000     0.0335834  
H230     H      0.912120000000     0.535590000000     0.696350000000     0.0439385  
H231     H      0.659280000000     0.481080000000     0.784550000000     0.0428453  
H232     H      0.746520000000     0.479220000000     0.883680000000     0.0386822  
H233     H      0.601350000000     0.492840000000     0.835080000000     0.041843   
H234     H      0.833570000000     0.509730000000     0.603510000000     0.0233605  
H235     H      0.793450000000     0.561800000000     0.755670000000     0.057116   
H236     H      0.932740000000     0.484530000000     0.688080000000     0.0376151  
H237     H      0.745880000000     0.418470000000     0.786850000000     0.0470423  
H238     H      0.869690000000     0.451190000000     0.711350000000     0.038223   
H239     H      0.688970000000     0.491940000000     0.935100000000     0.0392928  
H240     H      0.666050000000     0.526900000000     0.816210000000     0.0528085  
H241     H      0.717030000000     0.525890000000     0.873930000000     0.0432118  
H242     H      0.799850000000     0.429870000000     0.733570000000     0.0426231  
H243     H      0.814680000000     0.462470000000     0.660800000000     0.0452638  
H244     H      0.626470000000     0.443330000000     0.840730000000     0.0305338  
H245     H      0.719100000000     0.721340000000     0.951150000000     0.0436606  
H246     H      0.772400000000     0.865500000000     0.004010000000     0.0415338  
H247     H      0.864820000000     0.771570000000     0.001200000000     0.0597016  
H248     H      0.611160000000     0.679540000000     0.059240000000     0.0300921  
H249     H      0.828430000000     0.895230000000     0.964260000000     0.0380475  
H250     H      0.734590000000     0.643690000000     0.023680000000     0.0380831  
H251     H      0.640970000000     0.736380000000     0.020370000000     0.037928   
H252     H      0.680680000000     0.588440000000     0.013110000000     0.0351258  
H253     H      0.920480000000     0.825970000000     0.010650000000     0.0109102  
H254     H      0.773020000000     0.774340000000     0.940060000000     0.0515057  
H255     H      0.827720000000     0.919760000000     0.014380000000     0.0245651  
H256     H      0.733570000000     0.734390000000     0.084080000000     0.0441763  
H257     H      0.805030000000     0.856980000000     0.048890000000     0.0417968  
H258     H      0.586450000000     0.681500000000     0.009190000000     0.0338557  
H259     H      0.704010000000     0.650510000000     0.977070000000     0.0521278  
H260     H      0.649710000000     0.704390000000     0.975100000000     0.0517247  
H261     H      0.787760000000     0.787170000000     0.072960000000     0.038604   
H262     H      0.858610000000     0.803260000000     0.046860000000     0.0468574  
H263     H      0.676470000000     0.615310000000     0.061880000000     0.0300749  
H264     H      0.722470000000     0.286720000000     0.952270000000     0.0446208  
H265     H      0.864840000000     0.235210000000     0.008670000000     0.036651   
H266     H      0.771040000000     0.142600000000     0.007220000000     0.0593941  
H267     H      0.680790000000     0.395620000000     0.058880000000     0.0302712  
H268     H      0.895490000000     0.179200000000     0.970170000000     0.045581   
H269     H      0.643600000000     0.272520000000     0.022040000000     0.0433483  
H270     H      0.737580000000     0.364950000000     0.020990000000     0.0380204  
H271     H      0.589190000000     0.327110000000     0.010320000000     0.0402822  
H272     H      0.825930000000     0.087630000000     0.019010000000     0.0351418  
H273     H      0.775570000000     0.232600000000     0.943180000000     0.0535535  
H274     H      0.919170000000     0.180180000000     0.020770000000     0.0327142  
H275     H      0.732850000000     0.274590000000     0.085720000000     0.0464763  
H276     H      0.856070000000     0.203240000000     0.054000000000     0.0478111  
H277     H      0.683360000000     0.419890000000     0.008590000000     0.0324623  
H278     H      0.651830000000     0.303390000000     0.975840000000     0.062964   
H279     H      0.706100000000     0.356640000000     0.975200000000     0.0514928  
H280     H      0.785810000000     0.220330000000     0.076630000000     0.0475744  
H281     H      0.802600000000     0.150070000000     0.052810000000     0.0621187  
H282     H      0.614650000000     0.330150000000     0.059930000000     0.0264884  
H283     H      0.216750000000     0.789500000000     0.945810000000     0.0436632  
H284     H      0.365190000000     0.737140000000     0.985640000000     0.0375653  
H285     H      0.272220000000     0.643500000000     0.985770000000     0.0578247  
H286     H      0.181630000000     0.890370000000     0.062120000000     0.0284164  
H287     H      0.392240000000     0.681300000000     0.943250000000     0.0423501  
H288     H      0.143980000000     0.770540000000     0.021770000000     0.0425407  
H289     H      0.237180000000     0.863830000000     0.018790000000     0.0390358  
H290     H      0.088440000000     0.824780000000     0.016970000000     0.0421565  
H291     H      0.327310000000     0.588690000000     0.991730000000     0.0201249  
H292     H      0.269830000000     0.737260000000     0.928810000000     0.0574113  
H293     H      0.420840000000     0.683140000000     0.991180000000     0.0373306  
H294     H      0.239160000000     0.769810000000     0.076850000000     0.0424676  
H295     H      0.359830000000     0.703800000000     0.030520000000     0.0263354  
H296     H      0.182680000000     0.918960000000     0.014110000000     0.0280811  
H297     H      0.148550000000     0.803220000000     0.976300000000     0.0648239  
H298     H      0.202970000000     0.857830000000     0.974590000000     0.0546185  
H299     H      0.292060000000     0.717470000000     0.059860000000     0.0437442  
H300     H      0.305740000000     0.649090000000     0.030300000000     0.0322435  
H301     H      0.118510000000     0.827290000000     0.064060000000     0.0317028  
H302     H      0.228750000000     0.225740000000     0.065860000000     0.0449026  
H303     H      0.368250000000     0.271120000000     0.996820000000     0.0415783  
H304     H      0.273790000000     0.362560000000     0.990470000000     0.0595926  
H305     H      0.179580000000     0.107020000000     0.971850000000     0.0381493  
H306     H      0.401830000000     0.328240000000     0.029190000000     0.0266145  
H307     H      0.144820000000     0.234450000000     0.003460000000     0.035635   
H308     H      0.237580000000     0.141060000000     0.003310000000     0.0344289  
H309     H      0.091450000000     0.180130000000     0.025100000000     0.033338   
H310     H      0.328730000000     0.417520000000     0.976880000000     0.0167487  
H311     H      0.282900000000     0.279650000000     0.065900000000     0.0571272  
H312     H      0.421550000000     0.327070000000     0.977140000000     0.0290026  
H313     H      0.229920000000     0.224850000000     0.931500000000     0.048869   
H314     H      0.358260000000     0.299000000000     0.949250000000     0.0354116  
H315     H      0.182900000000     0.088050000000     0.024150000000     0.0318185  
H316     H      0.156770000000     0.206260000000     0.050430000000     0.042004   
H317     H      0.209350000000     0.152990000000     0.050290000000     0.0417984  
H318     H      0.284340000000     0.278740000000     0.931620000000     0.0429922  
H319     H      0.306750000000     0.352150000000     0.946530000000     0.0405099  
H320     H      0.109640000000     0.177030000000     0.972520000000     0.0394137  
H321     H      0.821290000000     0.019510000000     0.740180000000     0.0389463  
H322     H      0.721010000000     0.981800000000     0.659130000000     0.0358176  
H323     H      0.638780000000     0.051580000000     0.736330000000     0.0606615  
H324     H      0.817900000000     0.011510000000     0.912030000000     0.0440512  
H325     H      0.682490000000     0.029460000000     0.614640000000     0.0393985  
H326     H      0.853730000000     0.053970000000     0.793210000000     0.0405881  
H327     H      0.778860000000     0.969580000000     0.862700000000     0.041173   
H328     H      0.915100000000     0.034070000000     0.838000000000     0.0380728  
H329     H      0.579990000000     0.032590000000     0.685390000000     0.0212273  
H330     H      0.767500000000     0.026530000000     0.689000000000     0.0425533  
H331     H      0.667220000000     0.976500000000     0.605180000000     0.038287   
H332     H      0.727760000000     0.011740000000     0.837140000000     0.0459007  
H333     H      0.674340000000     0.959230000000     0.679800000000     0.0413799  
H334     H      0.837030000000     0.959040000000     0.912490000000     0.0377282  
H335     H      0.866160000000     0.999060000000     0.794270000000     0.0484459  
H336     H      0.825070000000     0.952040000000     0.836720000000     0.0456234  
H337     H      0.674000000000     0.010590000000     0.784690000000     0.0407136  
H338     H      0.630090000000     0.997190000000     0.726640000000     0.0537248  
H339     H      0.875930000000     0.065480000000     0.861820000000     0.0461735  
H340     H      0.216830000000     0.931220000000     0.781520000000     0.0459735  
H341     H      0.264340000000     0.991780000000     0.631860000000     0.0395824  
H342     H      0.354610000000     0.975860000000     0.727100000000     0.0568662  
H343     H      0.103330000000     0.031470000000     0.819630000000     0.0543754  
H344     H      0.319130000000     0.951690000000     0.599950000000     0.0421987  
H345     H      0.232680000000     0.009920000000     0.855890000000     0.026517   
H346     H      0.136410000000     0.990250000000     0.767920000000     0.0376174  
H347     H      0.180870000000     0.999530000000     0.914370000000     0.0447918  
H348     H      0.411720000000     0.982320000000     0.675220000000     0.0277168  
H349     H      0.267710000000     0.921240000000     0.725410000000     0.0551044  
H350     H      0.321480000000     0.003460000000     0.579380000000     0.0275652  
H351     H      0.225540000000     0.064040000000     0.765680000000     0.0531674  
H352     H      0.299210000000     0.033970000000     0.644210000000     0.0340961  
H353     H      0.085610000000     0.979450000000     0.827080000000     0.0496528  
H354     H      0.205050000000     0.961200000000     0.854500000000     0.0367714  
H355     H      0.149990000000     0.950040000000     0.804620000000     0.0375648  
H356     H      0.277860000000     0.054080000000     0.710840000000     0.044615   
H357     H      0.352500000000     0.024020000000     0.698600000000     0.0390382  
H358     H      0.175090000000     0.046600000000     0.885210000000     0.042399   
H359     H      0.295990000000     0.082620000000     0.278610000000     0.0403728  
H360     H      0.238360000000     0.032030000000     0.135020000000     0.0383625  
H361     H      0.147420000000     0.043360000000     0.230310000000     0.0607135  
H362     H      0.395430000000     0.968600000000     0.322920000000     0.0304957  
H363     H      0.182240000000     0.073150000000     0.106240000000     0.0327594  
H364     H      0.272900000000     0.012320000000     0.356330000000     0.0342508  
H365     H      0.369210000000     0.009630000000     0.266140000000     0.0332989  
H366     H      0.325840000000     0.018910000000     0.413200000000     0.0367461  
H367     H      0.090520000000     0.035140000000     0.177680000000     0.0222889  
H368     H      0.242900000000     0.096560000000     0.225330000000     0.0506072  
H369     H      0.182770000000     0.023140000000     0.081650000000     0.0287527  
H370     H      0.272270000000     0.951160000000     0.267710000000     0.0453202  
H371     H      0.204150000000     0.988770000000     0.145400000000     0.0508337  
H372     H      0.422650000000     0.017250000000     0.323210000000     0.0279532  
H373     H      0.307190000000     0.056360000000     0.350670000000     0.0379807  
H374     H      0.362540000000     0.054920000000     0.298540000000     0.0374932  
H375     H      0.218890000000     0.965110000000     0.214830000000     0.0457108  
H376     H      0.150560000000     0.995740000000     0.201090000000     0.0650257  
H377     H      0.326550000000     0.969890000000     0.386580000000     0.0346427  
H378     H      0.731530000000     0.945690000000     0.285730000000     0.0471052  
H379     H      0.869850000000     0.005410000000     0.242660000000     0.0290343  
H380     H      0.774750000000     0.022230000000     0.152780000000     0.0590921  
H381     H      0.681560000000     0.983010000000     0.408210000000     0.0360054  
H382     H      0.904420000000     0.041890000000     0.188150000000     0.0586558  
H383     H      0.648900000000     0.011400000000     0.279380000000     0.0392738  
H384     H      0.738650000000     0.017860000000     0.375770000000     0.0357162  
H385     H      0.592520000000     0.028800000000     0.331570000000     0.0442576  
H386     H      0.826710000000     0.007240000000     0.095530000000     0.0185486  
H387     H      0.784860000000     0.949200000000     0.230970000000     0.0400223  
H388     H      0.920820000000     0.988880000000     0.184850000000     0.0410497  
H389     H      0.732070000000     0.079400000000     0.294840000000     0.0469201  
H390     H      0.854780000000     0.963280000000     0.208850000000     0.0316934  
H391     H      0.681200000000     0.035340000000     0.427180000000     0.0315707  
H392     H      0.657000000000     0.059090000000     0.307540000000     0.0576201  
H393     H      0.707730000000     0.062770000000     0.362820000000     0.0440885  
H394     H      0.786120000000     0.082820000000     0.240870000000     0.0568205  
H395     H      0.801240000000     0.973290000000     0.157330000000     0.0502252  
H396     H      0.615050000000     0.978270000000     0.336460000000     0.036342   
H397     H      0.084520000000     0.284800000000     0.725640000000     0.0432878  
H398     H      0.014920000000     0.232990000000     0.863230000000     0.0405746  
H399     H      0.039440000000     0.138980000000     0.773770000000     0.0568273  
H400     H      0.977110000000     0.390170000000     0.681100000000     0.0356456  
H401     H      0.053550000000     0.180680000000     0.900340000000     0.0379237  
H402     H      0.020120000000     0.267750000000     0.641140000000     0.0357801  
H403     H      0.014350000000     0.358290000000     0.736770000000     0.0359156  
H404     H      0.032100000000     0.324810000000     0.588300000000     0.0293666  
H405     H      0.028850000000     0.084100000000     0.827890000000     0.0201056  
H406     H      0.091950000000     0.232330000000     0.780650000000     0.0534673  
H407     H      0.000310000000     0.178460000000     0.917190000000     0.0298238  
H408     H      0.951830000000     0.264330000000     0.723960000000     0.0454182  
H409     H      0.974310000000     0.196790000000     0.849290000000     0.0462337  
H410     H      0.027250000000     0.414470000000     0.683240000000     0.0367684  
H411     H      0.064260000000     0.300760000000     0.651670000000     0.0420228  
H412     H      0.061010000000     0.352300000000     0.706110000000     0.0402969  
H413     H      0.959430000000     0.210960000000     0.778070000000     0.0421048  
H414     H      0.989050000000     0.141610000000     0.798240000000     0.0497103  
H415     H      0.980850000000     0.322730000000     0.610300000000     0.0312756  
H416     H      0.929710000000     0.722000000000     0.743170000000     0.0518717  
H417     H      0.999950000000     0.859590000000     0.777490000000     0.0388638  
H418     H      0.009760000000     0.768560000000     0.872360000000     0.0565559  
H419     H      0.954210000000     0.670770000000     0.620620000000     0.0358148  
H420     H      0.038210000000     0.894010000000     0.831560000000     0.0448714  
H421     H      0.000360000000     0.636610000000     0.741640000000     0.0400019  
H422     H      0.988610000000     0.730480000000     0.649830000000     0.0452019  
H423     H      0.014520000000     0.583770000000     0.685600000000     0.0340456  
H424     H      0.996060000000     0.824200000000     0.926550000000     0.0454663  
H425     H      0.937380000000     0.776270000000     0.796500000000     0.0456447  
H426     H      0.986330000000     0.914430000000     0.831970000000     0.0453039  
H427     H      0.062730000000     0.720680000000     0.725330000000     0.045856   
H428     H      0.956320000000     0.848950000000     0.811130000000     0.0428485  
H429     H      0.002590000000     0.677840000000     0.593700000000     0.0321107  
H430     H      0.044060000000     0.648980000000     0.708670000000     0.0433886  
H431     H      0.037250000000     0.703170000000     0.655580000000     0.0439245  
H432     H      0.070380000000     0.774920000000     0.778660000000     0.0515591  
H433     H      0.962270000000     0.797090000000     0.865520000000     0.0591546  
H434     H      0.962640000000     0.604280000000     0.685550000000     0.0382631  
H435     H      0.935250000000     0.742610000000     0.282460000000     0.0428608  
H436     H      0.018550000000     0.773570000000     0.150750000000     0.0381414  
H437     H      0.022170000000     0.868880000000     0.242010000000     0.0589494  
H438     H      0.950810000000     0.621550000000     0.335970000000     0.019386   
H439     H      0.059040000000     0.829000000000     0.120540000000     0.0393894  
H440     H      0.000420000000     0.739490000000     0.372620000000     0.0378049  
H441     H      0.990160000000     0.648220000000     0.277910000000     0.0424135  
H442     H      0.008200000000     0.683650000000     0.426420000000     0.0303962  
H443     H      0.011460000000     0.922460000000     0.185860000000     0.0146348  
H444     H      0.948620000000     0.795290000000     0.228870000000     0.0395871  
H445     H      0.009700000000     0.826390000000     0.094520000000     0.0327411  
H446     H      0.067170000000     0.720360000000     0.293470000000     0.0399821  
H447     H      0.973820000000     0.806740000000     0.157910000000     0.0413025  
H448     H      0.997850000000     0.591820000000     0.331220000000     0.0252687  
H449     H      0.043290000000     0.704510000000     0.363130000000     0.040789   
H450     H      0.037340000000     0.651650000000     0.308220000000     0.0408287  
H451     H      0.080610000000     0.773350000000     0.240070000000     0.0506764  
H452     H      0.976090000000     0.862000000000     0.210980000000     0.0472536  
H453     H      0.958010000000     0.685150000000     0.401940000000     0.0223797  
H454     H      0.955200000000     0.300050000000     0.272000000000     0.0423316  
H455     H      0.030030000000     0.238190000000     0.138090000000     0.0376775  
H456     H      0.997930000000     0.152060000000     0.232600000000     0.0650218  
H457     H      0.062440000000     0.397930000000     0.334670000000     0.0192032  
H458     H      0.989590000000     0.186810000000     0.102110000000     0.0386917  
H459     H      0.011570000000     0.275970000000     0.360270000000     0.0377272  
H460     H      0.030640000000     0.372120000000     0.272170000000     0.0370844  
H461     H      0.997780000000     0.329050000000     0.415960000000     0.0340803  
H462     H      0.010700000000     0.092910000000     0.182070000000     0.0243897  
H463     H      0.948950000000     0.247240000000     0.217060000000     0.0533807  
H464     H      0.042990000000     0.178570000000     0.088300000000     0.0320449  
H465     H      0.086430000000     0.273900000000     0.282210000000     0.0449208  
H466     H      0.067600000000     0.200590000000     0.155890000000     0.0498175  
H467     H      0.014590000000     0.425510000000     0.327610000000     0.0291919  
H468     H      0.969790000000     0.311270000000     0.347880000000     0.0456242  
H469     H      0.980560000000     0.366170000000     0.296740000000     0.0443594  
H470     H      0.080050000000     0.220700000000     0.227610000000     0.0476326  
H471     H      0.048880000000     0.151400000000     0.210080000000     0.0637458  
H472     H      0.050110000000     0.328400000000     0.396680000000     0.023271   
N1       N      0.522260000000     0.134560000000     0.383830000000    -0.241146   
N2       N      0.522430000000     0.197670000000     0.322670000000    -0.0987314  
N3       N      0.484060000000     0.322130000000     0.201990000000    -0.108812   
N4       N      0.485940000000     0.383240000000     0.138840000000    -0.217863   
N5       N      0.516880000000     0.883420000000     0.372820000000    -0.230686   
N6       N      0.522080000000     0.824530000000     0.308050000000    -0.0987622  
N7       N      0.491460000000     0.699590000000     0.186080000000    -0.111702   
N8       N      0.496370000000     0.635310000000     0.126690000000    -0.207268   
N9       N      0.507890000000     0.627310000000     0.874240000000    -0.227694   
N10      N      0.514410000000     0.687040000000     0.809930000000    -0.0986887  
N11      N      0.490140000000     0.812330000000     0.686190000000    -0.10836    
N12      N      0.495620000000     0.875830000000     0.625730000000    -0.193688   
N13      N      0.499100000000     0.374490000000     0.885860000000    -0.241609   
N14      N      0.506580000000     0.310660000000     0.826600000000    -0.0987126  
N15      N      0.489100000000     0.186890000000     0.701070000000    -0.108618   
N16      N      0.497580000000     0.127340000000     0.637650000000    -0.21012    
N17      N      0.625490000000     0.132310000000     0.501820000000    -0.238723   
N18      N      0.686720000000     0.193700000000     0.502100000000    -0.0976708  
N19      N      0.815520000000     0.313800000000     0.520510000000    -0.10944    
N20      N      0.875620000000     0.376670000000     0.510120000000    -0.221503   
N21      N      0.628890000000     0.879160000000     0.506200000000    -0.229374   
N22      N      0.689710000000     0.816210000000     0.515590000000    -0.0964627  
N23      N      0.819460000000     0.693280000000     0.520280000000    -0.109206   
N24      N      0.879670000000     0.629530000000     0.516910000000    -0.20674    
N25      N      0.371620000000     0.130560000000     0.495880000000    -0.229555   
N26      N      0.308670000000     0.191570000000     0.496650000000    -0.0989406  
N27      N      0.188020000000     0.317520000000     0.464090000000    -0.110156   
N28      N      0.126690000000     0.379990000000     0.472280000000    -0.232894   
N29      N      0.129730000000     0.631090000000     0.498840000000    -0.231042   
N30      N      0.191330000000     0.692610000000     0.506560000000    -0.0993004  
N31      N      0.315940000000     0.817000000000     0.487380000000    -0.111039   
N32      N      0.377210000000     0.878780000000     0.496340000000    -0.206442   
N33      N      0.867130000000     0.497840000000     0.388790000000    -0.230528   
N34      N      0.801860000000     0.493860000000     0.329630000000    -0.0991515  
N35      N      0.678450000000     0.526940000000     0.205840000000    -0.111672   
N36      N      0.620070000000     0.520580000000     0.139970000000    -0.199927   
N37      N      0.367750000000     0.504150000000     0.124830000000    -0.226952   
N38      N      0.300620000000     0.495650000000     0.180300000000    -0.0977234  
N39      N      0.178000000000     0.504430000000     0.308260000000    -0.109688   
N40      N      0.120320000000     0.493560000000     0.373070000000    -0.237875   
N41      N      0.138740000000     0.486250000000     0.625600000000    -0.219749   
N42      N      0.204210000000     0.472840000000     0.683110000000    -0.0992661  
N43      N      0.329500000000     0.488170000000     0.808380000000    -0.107519   
N44      N      0.387920000000     0.482830000000     0.873340000000    -0.234148   
N45      N      0.888270000000     0.505910000000     0.642440000000    -0.205799   
N46      N      0.831150000000     0.505270000000     0.709050000000    -0.0986429  
N47      N      0.705830000000     0.475730000000     0.831470000000    -0.109916   
N48      N      0.640110000000     0.485420000000     0.889470000000    -0.213286   
N49      N      0.878700000000     0.877660000000     0.003090000000    -0.224539   
N50      N      0.815810000000     0.816000000000     0.997480000000    -0.081878   
N51      N      0.690500000000     0.692950000000     0.026610000000    -0.107745   
N52      N      0.628660000000     0.630380000000     0.019180000000    -0.199751   
N53      N      0.877220000000     0.129370000000     0.009120000000    -0.224903   
N54      N      0.815790000000     0.191220000000     0.002240000000    -0.0997306  
N55      N      0.693010000000     0.316360000000     0.026650000000    -0.106442   
N56      N      0.631780000000     0.378270000000     0.018470000000    -0.215843   
N57      N      0.378330000000     0.631560000000     0.984120000000    -0.226846   
N58      N      0.315840000000     0.693200000000     0.981510000000    -0.104243   
N59      N      0.193600000000     0.814310000000     0.024190000000    -0.104838   
N60      N      0.131440000000     0.876150000000     0.021970000000    -0.222395   
N61      N      0.380160000000     0.377460000000     0.991160000000    -0.239373   
N62      N      0.319120000000     0.315250000000     0.000600000000    -0.112664   
N63      N      0.193140000000     0.189660000000     0.997050000000    -0.101171   
N64      N      0.131490000000     0.128610000000     0.011360000000    -0.228205   
N65      N      0.622570000000     0.014200000000     0.637340000000    -0.222663   
N66      N      0.685100000000     0.022170000000     0.698760000000    -0.102655   
N67      N      0.810680000000     0.016310000000     0.827010000000    -0.108421   
N68      N      0.876970000000     0.003830000000     0.883990000000    -0.20071    
N69      N      0.370470000000     0.986610000000     0.622180000000    -0.206948   
N70      N      0.306430000000     0.979260000000     0.681540000000    -0.101839   
N71      N      0.186070000000     0.005850000000     0.808940000000    -0.123555   
N72      N      0.127650000000     0.002590000000     0.873780000000    -0.206293   
N73      N      0.132380000000     0.034290000000     0.125060000000    -0.24496    
N74      N      0.196050000000     0.041610000000     0.185150000000    -0.0951625  
N75      N      0.318440000000     0.006040000000     0.308550000000    -0.112229   
N76      N      0.378250000000     0.008150000000     0.372640000000    -0.222277   
N77      N      0.879860000000     0.009760000000     0.136140000000    -0.225082   
N78      N      0.821050000000     0.020020000000     0.200280000000    -0.101655   
N79      N      0.696060000000     0.008580000000     0.325860000000    -0.10938    
N80      N      0.632090000000     0.019590000000     0.384790000000    -0.230531   
N81      N      0.020880000000     0.127890000000     0.878190000000    -0.226065   
N82      N      0.031990000000     0.188880000000     0.816800000000    -0.0967895  
N83      N      0.011250000000     0.310750000000     0.690740000000    -0.111099   
N84      N      0.016770000000     0.373760000000     0.631130000000    -0.216838   
N85      N      0.002420000000     0.874870000000     0.883490000000    -0.199726   
N86      N      0.010580000000     0.812000000000     0.822290000000    -0.104348   
N87      N      0.989460000000     0.685760000000     0.698650000000    -0.104833   
N88      N      0.999480000000     0.625320000000     0.635190000000    -0.197615   
N89      N      0.018750000000     0.878830000000     0.135540000000    -0.230911   
N90      N      0.025020000000     0.818560000000     0.198950000000    -0.0980066  
N91      N      0.990670000000     0.696790000000     0.322910000000    -0.102475   
N92      N      0.994690000000     0.633770000000     0.383530000000    -0.228033   
N93      N      0.016100000000     0.132630000000     0.128520000000    -0.234279   
N94      N      0.008460000000     0.198530000000     0.186550000000    -0.0976196  
N95      N      0.026440000000     0.321190000000     0.314210000000    -0.108306   
N96      N      0.015740000000     0.381110000000     0.377900000000    -0.23632    
O1       O      0.016180000000     0.111890000000     0.059130000000    -1.05799    
O2       O      0.010100000000     0.894510000000     0.065310000000    -0.779499   
O3       O      0.949370000000     0.004250000000     0.115910000000    -1.0016     
O4       O      0.062900000000     0.019410000000     0.110640000000    -1.07128    
O5       O      0.113490000000     0.017160000000     0.057630000000    -1.07974    
O6       O      0.895870000000     0.007720000000     0.065250000000    -0.769264   
O7       O      0.011540000000     0.948180000000     0.115800000000    -1.00073    
O8       O      0.011700000000     0.061990000000     0.112550000000    -1.03415    
O9       O      0.051040000000     0.964480000000     0.050960000000    -2.05921    
O10      O      0.965510000000     0.048950000000     0.050630000000    -2.06288    
O11      O      0.960810000000     0.959060000000     0.055430000000    -0.854833   
O12      O      0.013990000000     0.011990000000     0.014320000000    -2.56272    
O13      O      0.002540000000     0.894610000000     0.953640000000    -0.681995   
O14      O      0.009490000000     0.110560000000     0.947340000000    -0.947708   
O15      O      0.896810000000     0.947780000000     0.007880000000    -0.726548   
O16      O      0.113580000000     0.945740000000     0.012160000000    -0.954628   
O17      O      0.113130000000     0.058650000000     0.009620000000    -1.03672    
O18      O      0.895460000000     0.059370000000     0.011810000000    -0.753917   
O19      O      0.947450000000     0.004800000000     0.899870000000    -0.591782   
O20      O      0.058420000000     0.001650000000     0.894260000000    -0.634385   
O21      O      0.896470000000     0.997710000000     0.953530000000    -0.676749   
O22      O      0.111810000000     0.004020000000     0.944960000000    -0.923379   
O23      O      0.949330000000     0.895260000000     0.007520000000    -0.717717   
O24      O      0.947450000000     0.111290000000     0.008550000000    -0.947047   
O25      O      0.061240000000     0.110460000000     0.011850000000    -1.0378     
O26      O      0.061470000000     0.893990000000     0.015240000000    -0.749215   
O27      O      0.001210000000     0.945640000000     0.899690000000    -0.584099   
O28      O      0.011720000000     0.058130000000     0.895810000000    -0.619843   
O29      O      0.048620000000     0.046270000000     0.964600000000    -1.9966     
O30      O      0.966230000000     0.964310000000     0.969160000000    -1.56126    
O31      O      0.958570000000     0.045510000000     0.960970000000    -1.23143    
O32      O      0.047280000000     0.956200000000     0.961140000000    -1.23386    
O33      O      0.008850000000     0.396800000000     0.448390000000    -1.05431    
O34      O      0.003050000000     0.614370000000     0.452830000000    -0.795417   
O35      O      0.938270000000     0.502770000000     0.402910000000    -1.0174     
O36      O      0.051890000000     0.497970000000     0.396080000000    -1.07685    
O37      O      0.107210000000     0.495640000000     0.444230000000    -1.05165    
O38      O      0.889310000000     0.500560000000     0.458080000000    -0.779762   
O39      O      0.995420000000     0.563270000000     0.400360000000    -1.02434    
O40      O      0.007570000000     0.450090000000     0.398210000000    -1.08376    
O41      O      0.045560000000     0.544200000000     0.460160000000    -2.10041    
O42      O      0.960140000000     0.459170000000     0.464310000000    -2.09629    
O43      O      0.955280000000     0.548880000000     0.464080000000    -0.879644   
O44      O      0.011740000000     0.494620000000     0.497860000000    -2.5807     
O45      O      0.001830000000     0.608820000000     0.564310000000    -0.714576   
O46      O      0.012180000000     0.393550000000     0.561480000000    -0.947768   
O47      O      0.896340000000     0.559050000000     0.517440000000    -0.730241   
O48      O      0.111750000000     0.560940000000     0.498430000000    -0.950818   
O49      O      0.109930000000     0.448610000000     0.487150000000    -1.05096    
O50      O      0.893620000000     0.446830000000     0.509560000000    -0.767443   
O51      O      0.956610000000     0.500740000000     0.618820000000    -0.587192   
O52      O      0.067910000000     0.495480000000     0.612770000000    -0.628558   
O53      O      0.900570000000     0.505720000000     0.570340000000    -0.699005   
O54      O      0.115990000000     0.495670000000     0.557020000000    -0.921576   
O55      O      0.948970000000     0.611170000000     0.510140000000    -0.743219   
O56      O      0.945560000000     0.394950000000     0.504710000000    -0.952006   
O57      O      0.058180000000     0.396720000000     0.489050000000    -1.05382    
O58      O      0.059610000000     0.612680000000     0.500710000000    -0.776322   
O59      O      0.008710000000     0.555890000000     0.615860000000    -0.586034   
O60      O      0.014310000000     0.444050000000     0.615010000000    -0.632959   
O61      O      0.050610000000     0.457800000000     0.542530000000    -1.99819    
O62      O      0.968420000000     0.540120000000     0.548890000000    -1.59769    
O63      O      0.961080000000     0.458870000000     0.554420000000    -1.23387    
O64      O      0.049980000000     0.547940000000     0.550570000000    -1.2439     
O65      O      0.611230000000     0.016330000000     0.454110000000    -1.05102    
O66      O      0.393350000000     0.008530000000     0.443460000000    -0.789901   
O67      O      0.507720000000     0.951910000000     0.394180000000    -1.01164    
O68      O      0.514610000000     0.064590000000     0.399830000000    -1.08221    
O69      O      0.512040000000     0.114830000000     0.453080000000    -1.06334    
O70      O      0.510190000000     0.897640000000     0.443880000000    -0.786506   
O71      O      0.447830000000     0.008510000000     0.393830000000    -1.00825    
O72      O      0.561520000000     0.016890000000     0.400180000000    -1.06931    
O73      O      0.462530000000     0.051740000000     0.459490000000    -2.08744    
O74      O      0.548730000000     0.967480000000     0.460680000000    -2.09211    
O75      O      0.458940000000     0.961390000000     0.453850000000    -0.865589   
O76      O      0.510040000000     0.014750000000     0.496940000000    -2.57505    
O77      O      0.391590000000     0.998050000000     0.553760000000    -0.706848   
O78      O      0.607090000000     0.008670000000     0.566890000000    -0.936951   
O79      O      0.447410000000     0.897080000000     0.498990000000    -0.752008   
O80      O      0.442030000000     0.113450000000     0.501410000000    -0.94857    
O81      O      0.555700000000     0.113930000000     0.505640000000    -1.04755    
O82      O      0.559320000000     0.896910000000     0.497360000000    -0.769691   
O83      O      0.499160000000     0.946620000000     0.610400000000    -0.580903   
O84      O      0.497610000000     0.058030000000     0.616940000000    -0.627936   
O85      O      0.497490000000     0.896320000000     0.555770000000    -0.712941   
O86      O      0.499810000000     0.111730000000     0.566660000000    -0.923546   
O87      O      0.394300000000     0.949070000000     0.498670000000    -0.727965   
O88      O      0.610200000000     0.949060000000     0.507200000000    -0.939224   
O89      O      0.607710000000     0.062470000000     0.499810000000    -1.06155    
O90      O      0.391180000000     0.060710000000     0.495310000000    -0.76168    
O91      O      0.441170000000     0.996990000000     0.609050000000    -0.581199   
O92      O      0.553090000000     0.010330000000     0.617060000000    -0.620468   
O93      O      0.543010000000     0.049030000000     0.547750000000    -1.99478    
O94      O      0.462350000000     0.965780000000     0.539880000000    -1.59653    
O95      O      0.542980000000     0.958980000000     0.550250000000    -1.25704    
O96      O      0.452560000000     0.046440000000     0.549380000000    -1.23279    
O97      O      0.449760000000     0.396440000000     0.997470000000    -1.03605    
O98      O      0.448130000000     0.614340000000     0.993520000000    -0.767573   
O99      O      0.391620000000     0.508190000000     0.056350000000    -0.994836   
O100     O      0.401420000000     0.491870000000     0.943870000000    -1.0631     
O101     O      0.456550000000     0.490280000000     0.895510000000    -1.05979    
O102     O      0.439280000000     0.504330000000     0.112540000000    -0.787012   
O103     O      0.396370000000     0.562010000000     0.993740000000    -0.984281   
O104     O      0.397690000000     0.447820000000     0.993930000000    -1.02768    
O105     O      0.462790000000     0.542610000000     0.956570000000    -2.07005    
O106     O      0.456520000000     0.461420000000     0.045430000000    -2.07387    
O107     O      0.453870000000     0.551460000000     0.046230000000    -0.866502   
O108     O      0.496230000000     0.495590000000     0.997540000000    -2.54778    
O109     O      0.558740000000     0.612000000000     0.010230000000    -0.697406   
O110     O      0.561790000000     0.396500000000     0.012660000000    -0.923769   
O111     O      0.496840000000     0.564400000000     0.111930000000    -0.750413   
O112     O      0.508050000000     0.557810000000     0.895350000000    -0.949536   
O113     O      0.502120000000     0.444910000000     0.901210000000    -1.07102    
O114     O      0.491340000000     0.452700000000     0.118290000000    -0.767515   
O115     O      0.607480000000     0.509760000000     0.069190000000    -0.582783   
O116     O      0.617780000000     0.496590000000     0.957780000000    -0.61427    
O117     O      0.551170000000     0.513550000000     0.117500000000    -0.71691    
O118     O      0.569220000000     0.494470000000     0.902460000000    -0.941301   
O119     O      0.500490000000     0.614590000000     0.057160000000    -0.728564   
O120     O      0.494400000000     0.398820000000     0.068350000000    -0.942115   
O121     O      0.498840000000     0.395300000000     0.955210000000    -1.03814    
O122     O      0.503390000000     0.611740000000     0.945130000000    -0.752166   
O123     O      0.611610000000     0.560060000000     0.012950000000    -0.582863   
O124     O      0.614020000000     0.448250000000     0.014210000000    -0.626586   
O125     O      0.546820000000     0.458570000000     0.967150000000    -1.98551    
O126     O      0.539610000000     0.544040000000     0.045500000000    -1.59012    
O127     O      0.545970000000     0.463610000000     0.057500000000    -1.24095    
O128     O      0.552660000000     0.548590000000     0.964530000000    -1.21713    
Tb1      Tb     0.005660000000     0.004090000000     0.076740000000     6.29556    
Tb2      Tb     0.006250000000     0.933470000000     0.010240000000     4.21319    
Tb3      Tb     0.004380000000     0.073520000000     0.004210000000     6.25935    
Tb4      Tb     0.935140000000     0.004250000000     0.010000000000     4.23002    
Tb5      Tb     0.075680000000     0.002110000000     0.003720000000     6.30335    
Tb6      Tb     0.005450000000     0.003500000000     0.936050000000     3.17566    
Tb7      Tb     0.997900000000     0.505370000000     0.436880000000     6.42763    
Tb8      Tb     0.004810000000     0.572740000000     0.505940000000     4.33517    
Tb9      Tb     0.002750000000     0.432620000000     0.506020000000     6.32425    
Tb10     Tb     0.933500000000     0.501950000000     0.509700000000     4.31985    
Tb11     Tb     0.074170000000     0.504050000000     0.503070000000     6.30037    
Tb12     Tb     0.010360000000     0.499680000000     0.576770000000     3.16795    
Tb13     Tb     0.503460000000     0.007120000000     0.434210000000     6.35051    
Tb14     Tb     0.431680000000     0.006010000000     0.498950000000     4.26616    
Tb15     Tb     0.571620000000     0.005570000000     0.508400000000     6.25035    
Tb16     Tb     0.503660000000     0.935790000000     0.499710000000     4.41682    
Tb17     Tb     0.499130000000     0.076150000000     0.507880000000     6.33703    
Tb18     Tb     0.499900000000     0.005020000000     0.574790000000     3.16226    
Tb19     Tb     0.433780000000     0.505290000000     0.002220000000     6.23942    
Tb20     Tb     0.501900000000     0.574210000000     0.002040000000     4.19944    
Tb21     Tb     0.504650000000     0.434300000000     0.010590000000     6.21419    
Tb22     Tb     0.496610000000     0.506270000000     0.076260000000     4.38033    
Tb23     Tb     0.509940000000     0.502550000000     0.936030000000     6.39375    
Tb24     Tb     0.574170000000     0.502890000000     0.009780000000     3.11406    


