data_structure

_audit_creation_method RASPA-1.0
_audit_creation_date 2023-5-19
_audit_author_name 'Poobodin Mano'

_cell_length_a    25.9943
_cell_length_b    25.872
_cell_length_c    26.1961
_cell_angle_alpha 90
_cell_angle_beta  90
_cell_angle_gamma 90
_cell_volume      17617.5

_symmetry_cell_setting          triclinic
_symmetry_space_group_name_Hall 'P 1'
_symmetry_space_group_name_H-M  'P 1'
_symmetry_Int_Tables_number     1

_symmetry_equiv_pos_as_xyz 'x,y,z'

loop_
_atom_site_label
_atom_site_type_symbol
_atom_site_fract_x
_atom_site_fract_y
_atom_site_fract_z
_atom_site_charge
C1       C      0.035260000000     0.127640000000     0.148730000000     0.728883   
C2       C      0.990060000000     0.892350000000     0.125270000000     0.681425   
C3       C      0.884940000000     0.028460000000     0.127510000000     0.682553   
C4       C      0.122060000000     0.013760000000     0.148310000000     0.734434   
C5       C      0.011120000000     0.917720000000     0.892760000000     0.574309   
C6       C      0.047890000000     0.151930000000     0.914060000000     0.654219   
C7       C      0.886520000000     0.919880000000     0.996240000000     0.593119   
C8       C      0.119290000000     0.888770000000     0.029930000000     0.692774   
C9       C      0.145010000000     0.126770000000     0.052280000000     0.711976   
C10      C      0.908770000000     0.154510000000     0.035620000000     0.690807   
C11      C      0.911240000000     0.043420000000     0.893940000000     0.574266   
C12      C      0.147470000000     0.026900000000     0.913590000000     0.654171   
C13      C      0.018950000000     0.391850000000     0.416360000000     0.717319   
C14      C      0.021850000000     0.630870000000     0.393230000000     0.67731    
C15      C      0.888680000000     0.513030000000     0.411850000000     0.683595   
C16      C      0.125740000000     0.486940000000     0.400420000000     0.727544   
C17      C      0.026860000000     0.649130000000     0.627210000000     0.574042   
C18      C      0.025770000000     0.412980000000     0.652290000000     0.647502   
C19      C      0.907890000000     0.646890000000     0.522970000000     0.602274   
C20      C      0.142990000000     0.633250000000     0.496890000000     0.689886   
C21      C      0.123360000000     0.394690000000     0.501740000000     0.714689   
C22      C      0.889200000000     0.408700000000     0.531920000000     0.687712   
C23      C      0.908290000000     0.543330000000     0.644440000000     0.579129   
C24      C      0.144450000000     0.514790000000     0.633380000000     0.660729   
C25      C      0.615670000000     0.034430000000     0.393200000000     0.726551   
C26      C      0.381120000000     0.007130000000     0.419840000000     0.675271   
C27      C      0.510800000000     0.886110000000     0.417180000000     0.681953   
C28      C      0.513210000000     0.125290000000     0.396000000000     0.740371   
C29      C      0.412620000000     0.019720000000     0.652710000000     0.575714   
C30      C      0.647400000000     0.040380000000     0.627690000000     0.64858    
C31      C      0.404540000000     0.895700000000     0.549000000000     0.590972   
C32      C      0.389170000000     0.132660000000     0.520080000000     0.702837   
C33      C      0.624470000000     0.140690000000     0.486310000000     0.72317    
C34      C      0.638840000000     0.903510000000     0.506880000000     0.700113   
C35      C      0.528910000000     0.912270000000     0.649740000000     0.576684   
C36      C      0.529680000000     0.149720000000     0.630300000000     0.667119   
C37      C      0.408760000000     0.389540000000     0.995410000000     0.735383   
C38      C      0.379470000000     0.626160000000     0.023220000000     0.682864   
C39      C      0.389390000000     0.492130000000     0.134720000000     0.681934   
C40      C      0.403800000000     0.496940000000     0.898410000000     0.740189   
C41      C      0.615330000000     0.650060000000     0.040570000000     0.567394   
C42      C      0.645860000000     0.416610000000     0.003880000000     0.652342   
C43      C      0.497520000000     0.625290000000     0.148830000000     0.596044   
C44      C      0.492660000000     0.650420000000     0.913700000000     0.693146   
C45      C      0.515700000000     0.413760000000     0.893350000000     0.732871   
C46      C      0.514840000000     0.388520000000     0.128730000000     0.692401   
C47      C      0.623090000000     0.528650000000     0.143180000000     0.584035   
C48      C      0.637950000000     0.539950000000     0.909100000000     0.656407   
C49      C      0.567170000000     0.240040000000     0.210180000000    -0.0407496  
C50      C      0.522680000000     0.294920000000     0.143770000000     0.0222626  
C51      C      0.518820000000     0.181620000000     0.264660000000    -0.0053711  
C52      C      0.521280000000     0.257250000000     0.187560000000    -0.00120986 
C53      C      0.517690000000     0.138490000000     0.303170000000     0.027991   
C54      C      0.474070000000     0.237890000000     0.205160000000    -0.0404512  
C55      C      0.472830000000     0.200450000000     0.243600000000    -0.0384169  
C56      C      0.565930000000     0.202540000000     0.248580000000    -0.038573   
C57      C      0.547470000000     0.702540000000     0.291160000000    -0.0408481  
C58      C      0.494370000000     0.638440000000     0.241650000000     0.00861509 
C59      C      0.509620000000     0.754900000000     0.358250000000     0.000524074
C60      C      0.499020000000     0.681480000000     0.279920000000     0.00437266 
C61      C      0.515540000000     0.792550000000     0.401520000000     0.0148188  
C62      C      0.455600000000     0.698850000000     0.306770000000    -0.0424059  
C63      C      0.460850000000     0.735470000000     0.345610000000    -0.039156   
C64      C      0.552710000000     0.739190000000     0.329960000000    -0.0394314  
C65      C      0.543290000000     0.788530000000     0.841440000000    -0.0378509  
C66      C      0.477240000000     0.743350000000     0.896160000000     0.0108787  
C67      C      0.519060000000     0.854650000000     0.780010000000     0.00769054 
C68      C      0.491390000000     0.780760000000     0.854200000000     0.00333897 
C69      C      0.533840000000     0.896450000000     0.742630000000     0.00126864 
C70      C      0.453310000000     0.809200000000     0.828500000000    -0.0407534  
C71      C      0.467060000000     0.845800000000     0.791610000000    -0.0408193  
C72      C      0.557020000000     0.825020000000     0.804470000000    -0.0425699  
C73      C      0.573420000000     0.335630000000     0.748950000000    -0.038119   
C74      C      0.523780000000     0.400290000000     0.801100000000     0.0285482  
C75      C      0.530790000000     0.281940000000     0.685960000000    -0.000662817
C76      C      0.525890000000     0.356970000000     0.763120000000    -0.00510327 
C77      C      0.533690000000     0.243610000000     0.643100000000     0.0232394  
C78      C      0.480610000000     0.339100000000     0.739940000000    -0.0382124  
C79      C      0.483030000000     0.301610000000     0.701690000000    -0.0402516  
C80      C      0.575850000000     0.298240000000     0.710640000000    -0.0405055  
C81      C      0.769540000000     0.248810000000     0.452250000000    -0.0416892  
C82      C      0.712660000000     0.170050000000     0.462870000000     0.0196954  
C83      C      0.815760000000     0.285470000000     0.524410000000     0.000589132
C84      C      0.745330000000     0.212940000000     0.484610000000    -0.000416217
C85      C      0.858990000000     0.318860000000     0.544270000000     0.0185144  
C86      C      0.755150000000     0.214910000000     0.537260000000    -0.0370617  
C87      C      0.790110000000     0.250840000000     0.557010000000    -0.042597   
C88      C      0.804610000000     0.284640000000     0.471970000000    -0.0382366  
C89      C      0.782970000000     0.838020000000     0.542260000000    -0.0364574  
C90      C      0.727100000000     0.884190000000     0.478710000000     0.0227796  
C91      C      0.847600000000     0.776270000000     0.515130000000     0.00418168 
C92      C      0.767210000000     0.844550000000     0.491430000000    -0.00136997 
C93      C      0.891330000000     0.740500000000     0.527210000000     0.00972104 
C94      C      0.791030000000     0.815780000000     0.452650000000    -0.0401076  
C95      C      0.830940000000     0.781750000000     0.464470000000    -0.0401022  
C96      C      0.822780000000     0.803870000000     0.554090000000    -0.0424947  
C97      C      0.263280000000     0.330120000000     0.524440000000    -0.037186   
C98      C      0.202470000000     0.364470000000     0.458400000000     0.0190204  
C99      C      0.318580000000     0.256720000000     0.507060000000    -0.00266069 
C100     C      0.241670000000     0.325770000000     0.475570000000     0.00134426 
C101     C      0.363850000000     0.223840000000     0.521260000000     0.0256762  
C102     C      0.257760000000     0.285880000000     0.442970000000    -0.0432361  
C103     C      0.296200000000     0.251700000000     0.458560000000    -0.0370739  
C104     C      0.301510000000     0.295830000000     0.540100000000    -0.0412897  
C105     C      0.309140000000     0.741780000000     0.576420000000    -0.0437909  
C106     C      0.384140000000     0.802900000000     0.563060000000     0.00441601 
C107     C      0.270920000000     0.695090000000     0.505250000000    -0.000488275
C108     C      0.342410000000     0.767800000000     0.542860000000     0.00592607 
C109     C      0.235870000000     0.652800000000     0.486020000000     0.0191801  
C110     C      0.338380000000     0.758520000000     0.490180000000    -0.0406963  
C111     C      0.302860000000     0.722540000000     0.471500000000    -0.0407567  
C112     C      0.273700000000     0.705710000000     0.557750000000    -0.0367677  
C113     C      0.770150000000     0.575100000000     0.244960000000    -0.0459462  
C114     C      0.709990000000     0.553170000000     0.172410000000     0.00181822 
C115     C      0.817070000000     0.507720000000     0.289640000000    -0.00310828 
C116     C      0.744750000000     0.537590000000     0.215570000000     0.00858802 
C117     C      0.860270000000     0.492390000000     0.324580000000     0.0226171  
C118     C      0.754560000000     0.485040000000     0.224550000000    -0.0416339  
C119     C      0.790420000000     0.470180000000     0.261390000000    -0.0385216  
C120     C      0.806160000000     0.560240000000     0.281700000000    -0.0349495  
C121     C      0.250470000000     0.426120000000     0.218800000000    -0.0398916  
C122     C      0.297240000000     0.479280000000     0.152490000000     0.0222656  
C123     C      0.185360000000     0.464580000000     0.273560000000    -0.00302005 
C124     C      0.261140000000     0.474690000000     0.197330000000    -0.00241066 
C125     C      0.142120000000     0.459060000000     0.311510000000     0.0236394  
C126     C      0.235280000000     0.518480000000     0.215900000000    -0.0406187  
C127     C      0.197750000000     0.513470000000     0.253810000000    -0.038643   
C128     C      0.212960000000     0.421110000000     0.256790000000    -0.0407032  
C129     C      0.318980000000     0.438790000000     0.750520000000    -0.0408938  
C130     C      0.388820000000     0.472520000000     0.808520000000     0.024685   
C131     C      0.273280000000     0.496360000000     0.693130000000    -0.0016716  
C132     C      0.346300000000     0.480930000000     0.770620000000    -0.00243872 
C133     C      0.236810000000     0.504130000000     0.649370000000     0.0229594  
C134     C      0.335300000000     0.531040000000     0.753280000000    -0.03771    
C135     C      0.298870000000     0.538740000000     0.714860000000    -0.0404137  
C136     C      0.282550000000     0.446490000000     0.712100000000    -0.0396342  
C137     C      0.787230000000     0.506020000000     0.825930000000    -0.0399839  
C138     C      0.730270000000     0.549820000000     0.890930000000     0.00666843 
C139     C      0.845100000000     0.555710000000     0.772010000000     0.00762415 
C140     C      0.766780000000     0.551860000000     0.846240000000     0.00440831 
C141     C      0.890210000000     0.557590000000     0.735860000000     0.00181932 
C142     C      0.783930000000     0.599610000000     0.827240000000    -0.0397708  
C143     C      0.822700000000     0.601520000000     0.790260000000    -0.0419982  
C144     C      0.826020000000     0.507940000000     0.788980000000    -0.0411334  
C145     C      0.742540000000     0.733520000000     0.983150000000    -0.0288856  
C146     C      0.703040000000     0.684630000000     0.056940000000     0.00169334 
C147     C      0.806610000000     0.800900000000     0.997230000000     0.0155993  
C148     C      0.734080000000     0.729370000000     0.035950000000    -0.00132228 
C149     C      0.851800000000     0.832190000000     0.977740000000     0.000922289
C150     C      0.760350000000     0.763130000000     0.069000000000    -0.0381464  
C151     C      0.796340000000     0.798480000000     0.049820000000    -0.0486499  
C152     C      0.778460000000     0.768920000000     0.963960000000    -0.0477569  
C153     C      0.756120000000     0.272760000000     0.963500000000    -0.0488129  
C154     C      0.680930000000     0.334010000000     0.971080000000     0.0135013  
C155     C      0.788270000000     0.226400000000     0.037500000000    -0.00575646 
C156     C      0.719630000000     0.297920000000     0.994200000000     0.0128897  
C157     C      0.821830000000     0.184810000000     0.059570000000     0.0144594  
C158     C      0.717910000000     0.287370000000     0.046710000000    -0.0474141  
C159     C      0.751990000000     0.251860000000     0.068230000000    -0.0378004  
C160     C      0.790000000000     0.237010000000     0.984970000000    -0.0258131  
C161     C      0.191090000000     0.742210000000     0.984890000000    -0.0348206  
C162     C      0.129020000000     0.794750000000     0.036830000000     0.0167372  
C163     C      0.246140000000     0.678070000000     0.024410000000    -0.00834555 
C164     C      0.170920000000     0.755200000000     0.032870000000    -0.00374885 
C165     C      0.285850000000     0.636400000000     0.019830000000     0.0208018  
C166     C      0.189630000000     0.730490000000     0.076780000000    -0.0415048  
C167     C      0.227180000000     0.692200000000     0.072570000000    -0.0379625  
C168     C      0.228650000000     0.703960000000     0.980700000000    -0.0334443  
C169     C      0.339420000000     0.252500000000     0.059560000000    -0.0350641  
C170     C      0.391130000000     0.294880000000     0.988790000000     0.0337795  
C171     C      0.274830000000     0.186430000000     0.041770000000    -0.00596616 
C172     C      0.348100000000     0.259650000000     0.007060000000    -0.0155193  
C173     C      0.239220000000     0.143680000000     0.060050000000     0.0198148  
C174     C      0.318280000000     0.231280000000     0.972070000000    -0.0329245  
C175     C      0.281960000000     0.195110000000     0.989270000000    -0.0348344  
C176     C      0.303050000000     0.216390000000     0.076750000000    -0.0427958  
C177     C      0.834900000000     0.002900000000     0.743080000000    -0.0491478  
C178     C      0.896760000000     0.049970000000     0.801180000000     0.000529393
C179     C      0.779000000000     0.049630000000     0.684650000000    -0.000406206
C180     C      0.853080000000     0.049770000000     0.763230000000     0.00941287 
C181     C      0.741070000000     0.049550000000     0.641050000000     0.018939   
C182     C      0.832440000000     0.096500000000     0.745190000000    -0.0438197  
C183     C      0.795540000000     0.096420000000     0.706300000000    -0.0380379  
C184     C      0.797980000000     0.002830000000     0.704210000000    -0.0433002  
C185     C      0.298470000000     0.976810000000     0.840240000000    -0.0316687  
C186     C      0.241060000000     0.025350000000     0.901190000000     0.0154383  
C187     C      0.357420000000     0.022150000000     0.784080000000     0.00209962 
C188     C      0.279650000000     0.024190000000     0.858500000000    -0.00667022 
C189     C      0.400380000000     0.021090000000     0.745750000000    -0.00255544 
C190     C      0.298660000000     0.070510000000     0.838000000000    -0.0373599  
C191     C      0.337170000000     0.069490000000     0.800840000000    -0.0422181  
C192     C      0.337060000000     0.975790000000     0.803170000000    -0.0367174  
C193     C      0.200490000000     0.958880000000     0.297880000000    -0.0322322  
C194     C      0.135770000000     0.003040000000     0.240670000000     0.0206227  
C195     C      0.250440000000     0.007480000000     0.359920000000    -0.00204495 
C196     C      0.178470000000     0.004850000000     0.279550000000    -0.0112442  
C197     C      0.287390000000     0.008510000000     0.404300000000     0.00515965 
C198     C      0.194160000000     0.052300000000     0.300400000000    -0.0371286  
C199     C      0.230070000000     0.053620000000     0.340160000000    -0.0428828  
C200     C      0.236290000000     0.960200000000     0.337690000000    -0.0368611  
C201     C      0.747630000000     0.007000000000     0.314560000000    -0.0608064  
C202     C      0.693870000000     0.075080000000     0.357470000000     0.0152065  
C203     C      0.808360000000     0.029130000000     0.247600000000    -0.0158535  
C204     C      0.731230000000     0.058610000000     0.316910000000     0.00913466 
C205     C      0.853740000000     0.014920000000     0.214980000000     0.0211041  
C206     C      0.752910000000     0.095200000000     0.283680000000    -0.0504819  
C207     C      0.791380000000     0.080590000000     0.249420000000    -0.0306039  
C208     C      0.785880000000     0.992330000000     0.280080000000    -0.0185889  
C209     C      0.101780000000     0.302460000000     0.830070000000    -0.03972    
C210     C      0.069400000000     0.243790000000     0.900030000000     0.0178368  
C211     C      0.043050000000     0.357130000000     0.782400000000     0.00918088 
C212     C      0.060340000000     0.282110000000     0.857920000000     0.00152576 
C213     C      0.034240000000     0.399750000000     0.744530000000    -0.00239558 
C214     C      0.010060000000     0.298100000000     0.846470000000    -0.0432114  
C215     C      0.001440000000     0.335290000000     0.808820000000    -0.0504519  
C216     C      0.093160000000     0.339690000000     0.792440000000    -0.0431112  
C217     C      0.972960000000     0.801960000000     0.700530000000    -0.0340264  
C218     C      0.024690000000     0.743230000000     0.642760000000     0.000466065
C219     C      0.014850000000     0.857880000000     0.762540000000     0.0016737  
C220     C      0.020710000000     0.780580000000     0.686880000000    -0.00124101 
C221     C      0.012500000000     0.902350000000     0.799770000000    -0.00425835 
C222     C      0.065160000000     0.796530000000     0.712960000000    -0.0395815  
C223     C      0.062230000000     0.834760000000     0.750620000000    -0.0407405  
C224     C      0.970040000000     0.840230000000     0.738170000000    -0.0359805  
C225     C      0.948130000000     0.790230000000     0.274320000000    -0.0504083  
C226     C      0.960750000000     0.861760000000     0.209980000000     0.0150673  
C227     C      0.021070000000     0.751280000000     0.317600000000    -0.0102862  
C228     C      0.981570000000     0.821020000000     0.245220000000     0.0130506  
C229     C      0.041570000000     0.717860000000     0.359880000000     0.0153697  
C230     C      0.034910000000     0.816010000000     0.251890000000    -0.0500036  
C231     C      0.054550000000     0.781300000000     0.287750000000    -0.0361923  
C232     C      0.967760000000     0.755720000000     0.310370000000    -0.024993   
C233     C      0.988000000000     0.240760000000     0.332510000000    -0.0348608  
C234     C      0.027180000000     0.298170000000     0.400270000000     0.0160368  
C235     C      0.041120000000     0.185050000000     0.279430000000    -0.0116677  
C236     C      0.032140000000     0.261290000000     0.355860000000    -0.00787767 
C237     C      0.045650000000     0.141140000000     0.241750000000     0.0267602  
C238     C      0.080870000000     0.245090000000     0.339080000000    -0.0408189  
C239     C      0.085330000000     0.207330000000     0.301070000000    -0.0388106  
C240     C      0.992460000000     0.203030000000     0.294490000000    -0.0310096  
H1       H      0.972030000000     0.987920000000     0.051170000000    -1.24733    
H2       H      0.046880000000     0.047760000000     0.056330000000    -1.05696    
H3       H      0.983050000000     0.119880000000     0.979850000000    -0.500638   
H4       H      0.101750000000     0.970670000000     0.978510000000    -0.506846   
H5       H      0.980130000000     0.556710000000     0.482820000000    -1.23944    
H6       H      0.043600000000     0.485570000000     0.492960000000    -1.0496     
H7       H      0.968130000000     0.441360000000     0.578810000000    -0.497751   
H8       H      0.109980000000     0.565680000000     0.557900000000    -0.534418   
H9       H      0.476150000000     0.976700000000     0.493270000000    -1.23853    
H10      H      0.540310000000     0.047570000000     0.487080000000    -1.08591    
H11      H      0.609460000000     0.979590000000     0.562100000000    -0.513654   
H12      H      0.469850000000     0.107800000000     0.566590000000    -0.556464   
H13      H      0.468420000000     0.548370000000     0.058940000000    -1.23639    
H14      H      0.486730000000     0.489000000000     0.986420000000    -1.06923    
H15      H      0.567100000000     0.434130000000     0.060950000000    -0.504791   
H16      H      0.555730000000     0.580940000000     0.941910000000    -0.560857   
H17      H      0.520560000000     0.197700000000     0.362620000000     0.112326   
H18      H      0.560080000000     0.292470000000     0.123210000000     0.0286016  
H19      H      0.491960000000     0.285340000000     0.115710000000     0.0273268  
H20      H      0.601760000000     0.188940000000     0.264890000000     0.033312   
H21      H      0.603950000000     0.254920000000     0.197460000000     0.0355404  
H22      H      0.483580000000     0.113340000000     0.296600000000     0.0289285  
H23      H      0.438260000000     0.251090000000     0.188480000000     0.0354833  
H24      H      0.436080000000     0.185260000000     0.256030000000     0.0345988  
H25      H      0.551790000000     0.113000000000     0.297990000000     0.0269028  
H26      H      0.509470000000     0.355330000000     0.200520000000     0.111025   
H27      H      0.503880000000     0.853670000000     0.345170000000     0.109365   
H28      H      0.526920000000     0.610960000000     0.246870000000     0.041391   
H29      H      0.458260000000     0.616160000000     0.247660000000     0.0319694  
H30      H      0.590500000000     0.754490000000     0.338630000000     0.0366309  
H31      H      0.581330000000     0.689760000000     0.270600000000     0.0387908  
H32      H      0.486840000000     0.784120000000     0.431960000000     0.0316962  
H33      H      0.417830000000     0.683300000000     0.298420000000     0.035618   
H34      H      0.427060000000     0.747860000000     0.366500000000     0.0344793  
H35      H      0.553930000000     0.788020000000     0.419810000000     0.0349936  
H36      H      0.492300000000     0.697840000000     0.182300000000     0.10715    
H37      H      0.527730000000     0.839020000000     0.681990000000     0.108492   
H38      H      0.500730000000     0.752190000000     0.930580000000     0.0398784  
H39      H      0.436100000000     0.747420000000     0.907120000000     0.0316514  
H40      H      0.597330000000     0.830870000000     0.795730000000     0.0386905  
H41      H      0.573200000000     0.766800000000     0.860660000000     0.0402312  
H42      H      0.509030000000     0.930940000000     0.748870000000     0.0423401  
H43      H      0.413020000000     0.803670000000     0.837490000000     0.0361475  
H44      H      0.437200000000     0.867990000000     0.772820000000     0.0382459  
H45      H      0.573940000000     0.909630000000     0.749660000000     0.0364914  
H46      H      0.487630000000     0.681370000000     0.841020000000     0.110274   
H47      H      0.540700000000     0.183450000000     0.701260000000     0.108522   
H48      H      0.559930000000     0.423330000000     0.799560000000     0.0284839  
H49      H      0.491890000000     0.427160000000     0.791600000000     0.0307562  
H50      H      0.612910000000     0.282740000000     0.699530000000     0.0367778  
H51      H      0.608690000000     0.348670000000     0.766830000000     0.0354247  
H52      H      0.500560000000     0.248880000000     0.616660000000     0.0325617  
H53      H      0.443570000000     0.354870000000     0.750760000000     0.0333824  
H54      H      0.447790000000     0.288760000000     0.683620000000     0.0361522  
H55      H      0.568790000000     0.250670000000     0.619800000000     0.0279653  
H56      H      0.515860000000     0.340980000000     0.860100000000     0.111013   
H57      H      0.812160000000     0.387570000000     0.532460000000     0.11014    
H58      H      0.717840000000     0.168160000000     0.420880000000     0.0193179  
H59      H      0.725760000000     0.132620000000     0.479200000000     0.0375256  
H60      H      0.824370000000     0.310580000000     0.446100000000     0.0386874  
H61      H      0.762670000000     0.247970000000     0.411470000000     0.0342529  
H62      H      0.863830000000     0.313580000000     0.586130000000     0.0264588  
H63      H      0.737030000000     0.187470000000     0.562820000000     0.0366314  
H64      H      0.798390000000     0.250380000000     0.597530000000     0.0353507  
H65      H      0.895500000000     0.305750000000     0.526320000000     0.0353686  
H66      H      0.643640000000     0.216470000000     0.468950000000     0.111894   
H67      H      0.835140000000     0.678180000000     0.532220000000     0.108944   
H68      H      0.738820000000     0.921600000000     0.496160000000     0.0343785  
H69      H      0.724370000000     0.890370000000     0.436780000000     0.0234502  
H70      H      0.834720000000     0.799590000000     0.593490000000     0.036617   
H71      H      0.764920000000     0.859950000000     0.572600000000     0.0385262  
H72      H      0.922810000000     0.746580000000     0.499030000000     0.0390657  
H73      H      0.779340000000     0.820230000000     0.413210000000     0.0342724  
H74      H      0.849340000000     0.760200000000     0.434070000000     0.0363748  
H75      H      0.907960000000     0.749490000000     0.565310000000     0.0314897  
H76      H      0.667590000000     0.829040000000     0.500330000000     0.109969   
H77      H      0.313020000000     0.156580000000     0.524140000000     0.109048   
H78      H      0.217730000000     0.403950000000     0.465570000000     0.0438088  
H79      H      0.195170000000     0.360780000000     0.416730000000     0.017009   
H80      H      0.318620000000     0.300640000000     0.577510000000     0.0345119  
H81      H      0.251110000000     0.360650000000     0.550060000000     0.037036   
H82      H      0.395730000000     0.232480000000     0.494220000000     0.0328695  
H83      H      0.241350000000     0.281820000000     0.405170000000     0.033532   
H84      H      0.309340000000     0.222050000000     0.432410000000     0.0370742  
H85      H      0.378400000000     0.233870000000     0.559970000000     0.0256652  
H86      H      0.139440000000     0.317950000000     0.486310000000     0.110466   
H87      H      0.172010000000     0.706940000000     0.485100000000     0.109286   
H88      H      0.391070000000     0.795250000000     0.604250000000     0.0314383  
H89      H      0.420550000000     0.794590000000     0.542310000000     0.0419118  
H90      H      0.249290000000     0.685080000000     0.584370000000     0.0389819  
H91      H      0.311430000000     0.748420000000     0.617180000000     0.0370209  
H92      H      0.244540000000     0.643610000000     0.445460000000     0.0237681  
H93      H      0.363620000000     0.778260000000     0.463650000000     0.0358643  
H94      H      0.301280000000     0.715190000000     0.430830000000     0.0342272  
H95      H      0.243580000000     0.616910000000     0.508120000000     0.0345704  
H96      H      0.330910000000     0.867530000000     0.561330000000     0.10773    
H97      H      0.811920000000     0.509810000000     0.390300000000     0.109892   
H98      H      0.709910000000     0.595810000000     0.167000000000     0.0305629  
H99      H      0.725070000000     0.535630000000     0.136630000000     0.0435825  
H100     H      0.826650000000     0.589710000000     0.302920000000     0.0354505  
H101     H      0.763210000000     0.615870000000     0.238530000000     0.0359199  
H102     H      0.866650000000     0.449880000000     0.323540000000     0.0242808  
H103     H      0.735410000000     0.455620000000     0.202070000000     0.0416377  
H104     H      0.798450000000     0.429450000000     0.266720000000     0.0347409  
H105     H      0.896350000000     0.510460000000     0.310300000000     0.0329313  
H106     H      0.643810000000     0.533630000000     0.219400000000     0.108575   
H107     H      0.197990000000     0.468110000000     0.372620000000     0.110972   
H108     H      0.293500000000     0.444680000000     0.127520000000     0.0271733  
H109     H      0.287030000000     0.513520000000     0.128810000000     0.0274192  
H110     H      0.204540000000     0.383150000000     0.272090000000     0.033438   
H111     H      0.270250000000     0.391930000000     0.205210000000     0.0355577  
H112     H      0.109270000000     0.483840000000     0.299540000000     0.033543   
H113     H      0.243160000000     0.556360000000     0.200090000000     0.0340525  
H114     H      0.177370000000     0.547540000000     0.266810000000     0.0355576  
H115     H      0.127380000000     0.418700000000     0.311780000000     0.0220585  
H116     H      0.360420000000     0.479510000000     0.207510000000     0.109293   
H117     H      0.176040000000     0.514790000000     0.706130000000     0.107972   
H118     H      0.402230000000     0.431760000000     0.807030000000     0.0179234  
H119     H      0.421920000000     0.497820000000     0.798500000000     0.0380567  
H120     H      0.262510000000     0.413460000000     0.696270000000     0.0353319  
H121     H      0.326650000000     0.399870000000     0.763740000000     0.0333431  
H122     H      0.248610000000     0.538220000000     0.626250000000     0.0278557  
H123     H      0.355750000000     0.564020000000     0.768700000000     0.0367253  
H124     H      0.291560000000     0.577570000000     0.701190000000     0.0365247  
H125     H      0.238690000000     0.470450000000     0.622980000000     0.0291077  
H126     H      0.332900000000     0.474340000000     0.870030000000     0.111719   
H127     H      0.834950000000     0.555230000000     0.673310000000     0.109527   
H128     H      0.739930000000     0.516310000000     0.915810000000     0.0387582  
H129     H      0.734320000000     0.585190000000     0.914780000000     0.0360878  
H130     H      0.842320000000     0.472170000000     0.774810000000     0.0393088  
H131     H      0.774320000000     0.468800000000     0.839880000000     0.0374317  
H132     H      0.911350000000     0.594740000000     0.740020000000     0.036962   
H133     H      0.768460000000     0.635420000000     0.842220000000     0.0371064  
H134     H      0.836360000000     0.638760000000     0.777100000000     0.0382179  
H135     H      0.918260000000     0.526750000000     0.746020000000     0.041762   
H136     H      0.667310000000     0.546850000000     0.835650000000     0.109809   
H137     H      0.808950000000     0.903680000000     0.986130000000     0.109806   
H138     H      0.717420000000     0.648420000000     0.039070000000     0.0434515  
H139     H      0.709060000000     0.680870000000     0.098800000000     0.0289437  
H140     H      0.785880000000     0.769640000000     0.923280000000     0.0382365  
H141     H      0.723120000000     0.707610000000     0.956980000000     0.0398033  
H142     H      0.887520000000     0.816730000000     0.995410000000     0.0461055  
H143     H      0.754840000000     0.760490000000     0.109900000000     0.0343471  
H144     H      0.817880000000     0.822340000000     0.076240000000     0.0394086  
H145     H      0.856180000000     0.827090000000     0.935830000000     0.0328325  
H146     H      0.631760000000     0.727950000000     0.050810000000     0.106476   
H147     H      0.891190000000     0.230690000000     0.052610000000     0.108976   
H148     H      0.686170000000     0.336620000000     0.929030000000     0.0243326  
H149     H      0.641920000000     0.318020000000     0.978300000000     0.0401474  
H150     H      0.817070000000     0.217010000000     0.960500000000     0.0398972  
H151     H      0.757790000000     0.280040000000     0.922820000000     0.0375993  
H152     H      0.818410000000     0.184200000000     0.101890000000     0.024683   
H153     H      0.689630000000     0.306080000000     0.070850000000     0.041218   
H154     H      0.749400000000     0.243620000000     0.108690000000     0.033283   
H155     H      0.807720000000     0.146870000000     0.045460000000     0.0424808  
H156     H      0.723580000000     0.401780000000     0.994720000000     0.108613   
H157     H      0.343530000000     0.697620000000     0.026520000000     0.108318   
H158     H      0.101520000000     0.789630000000     0.004640000000     0.0348283  
H159     H      0.106870000000     0.789860000000     0.072870000000     0.0309912  
H160     H      0.243650000000     0.694130000000     0.943350000000     0.0359536  
H161     H      0.177390000000     0.761370000000     0.950730000000     0.0385666  
H162     H      0.279970000000     0.606720000000     0.050060000000     0.0266843  
H163     H      0.174860000000     0.740490000000     0.114160000000     0.0352723  
H164     H      0.241040000000     0.673190000000     0.106760000000     0.0337209  
H165     H      0.281550000000     0.615640000000     0.982860000000     0.0319679  
H166     H      0.189730000000     0.853060000000     0.041320000000     0.109513   
H167     H      0.176840000000     0.199270000000     0.064410000000     0.109607   
H168     H      0.425500000000     0.289350000000     0.013530000000     0.0273819  
H169     H      0.402530000000     0.284780000000     0.949130000000     0.0225591  
H170     H      0.298020000000     0.210810000000     0.117420000000     0.0341952  
H171     H      0.361750000000     0.274000000000     0.087280000000     0.0339915  
H172     H      0.244870000000     0.108830000000     0.035800000000     0.0334173  
H173     H      0.323990000000     0.236160000000     0.931410000000     0.0329651  
H174     H      0.260440000000     0.172770000000     0.961550000000     0.036365   
H175     H      0.249610000000     0.131940000000     0.099550000000     0.0235851  
H176     H      0.336040000000     0.357870000000     0.986850000000     0.112821   
H177     H      0.680640000000     0.051670000000     0.698670000000     0.108254   
H178     H      0.922770000000     0.016590000000     0.793930000000     0.03806    
H179     H      0.920270000000     0.085620000000     0.796660000000     0.038948   
H180     H      0.785050000000     0.966290000000     0.688610000000     0.0423745  
H181     H      0.850140000000     0.966420000000     0.756640000000     0.0438136  
H182     H      0.746020000000     0.084830000000     0.617250000000     0.0264446  
H183     H      0.845730000000     0.133060000000     0.760420000000     0.0386351  
H184     H      0.780710000000     0.132910000000     0.692330000000     0.0352979  
H185     H      0.748730000000     0.016280000000     0.615200000000     0.0295826  
H186     H      0.838590000000     0.048850000000     0.861400000000     0.107864   
H187     H      0.341170000000     0.012530000000     0.687160000000     0.107773   
H188     H      0.244550000000     0.989950000000     0.925120000000     0.0392461  
H189     H      0.248610000000     0.059030000000     0.926560000000     0.0296215  
H190     H      0.351700000000     0.938900000000     0.790030000000     0.0369372  
H191     H      0.283930000000     0.940660000000     0.855330000000     0.0366583  
H192     H      0.424860000000     0.056150000000     0.749790000000     0.0404282  
H193     H      0.284280000000     0.107400000000     0.851400000000     0.0353935  
H194     H      0.351870000000     0.105620000000     0.785870000000     0.0385291  
H195     H      0.426190000000     0.987630000000     0.753250000000     0.0406878  
H196     H      0.181900000000     0.035460000000     0.842640000000     0.107494   
H197     H      0.348660000000     0.001780000000     0.347880000000     0.106981   
H198     H      0.115880000000     0.964950000000     0.241930000000     0.0301682  
H199     H      0.106340000000     0.032730000000     0.249880000000     0.0306754  
H200     H      0.252230000000     0.924270000000     0.351860000000     0.0360804  
H201     H      0.189070000000     0.921880000000     0.282170000000     0.0335637  
H202     H      0.282080000000     0.044300000000     0.427280000000     0.0368113  
H203     H      0.177730000000     0.088190000000     0.286670000000     0.0323986  
H204     H      0.241130000000     0.090570000000     0.356230000000     0.0358051  
H205     H      0.279110000000     0.975820000000     0.430650000000     0.0376728  
H206     H      0.194480000000     0.013340000000     0.181810000000     0.108827   
H207     H      0.807890000000     0.033620000000     0.147550000000     0.107049   
H208     H      0.711830000000     0.067820000000     0.395300000000     0.0418062  
H209     H      0.685750000000     0.117120000000     0.354490000000     0.0172182  
H210     H      0.798900000000     0.952560000000     0.279790000000     0.0291123  
H211     H      0.731720000000     0.978400000000     0.340320000000     0.0475703  
H212     H      0.888240000000     0.035440000000     0.229890000000     0.0313762  
H213     H      0.741160000000     0.135340000000     0.285200000000     0.0348767  
H214     H      0.808840000000     0.109660000000     0.225200000000     0.0351401  
H215     H      0.862350000000     0.972880000000     0.217740000000     0.0270882  
H216     H      0.629000000000     0.044120000000     0.315860000000     0.109615   
H217     H      0.028360000000     0.340130000000     0.685520000000     0.107992   
H218     H      0.109790000000     0.245890000000     0.913870000000     0.0268617  
H219     H      0.043790000000     0.253070000000     0.932830000000     0.0353636  
H220     H      0.125630000000     0.355700000000     0.771880000000     0.0381204  
H221     H      0.140790000000     0.290070000000     0.837930000000     0.0354226  
H222     H      0.998910000000     0.421870000000     0.754490000000     0.0418818  
H223     H      0.977610000000     0.282270000000     0.867180000000     0.0446834  
H224     H      0.962450000000     0.347820000000     0.801060000000     0.0434584  
H225     H      0.066390000000     0.428120000000     0.746590000000     0.0405064  
H226     H      0.063970000000     0.182900000000     0.842990000000     0.107909   
H227     H      0.000480000000     0.845440000000     0.860070000000     0.107065   
H228     H      0.991460000000     0.747930000000     0.616390000000     0.0440993  
H229     H      0.060070000000     0.751500000000     0.620300000000     0.0365938  
H230     H      0.933010000000     0.857100000000     0.747260000000     0.03665    
H231     H      0.938140000000     0.789960000000     0.681150000000     0.0357115  
H232     H      0.047460000000     0.926850000000     0.795670000000     0.0424003  
H233     H      0.102300000000     0.780260000000     0.703250000000     0.0383329  
H234     H      0.097140000000     0.847390000000     0.769450000000     0.0397351  
H235     H      0.979430000000     0.928040000000     0.790640000000     0.0415247  
H236     H      0.028420000000     0.681630000000     0.699560000000     0.105869   
H237     H      0.022490000000     0.649010000000     0.316150000000     0.10543    
H238     H      0.917980000000     0.861640000000     0.210090000000     0.0206533  
H239     H      0.973500000000     0.900060000000     0.224480000000     0.0383401  
H240     H      0.941350000000     0.733300000000     0.333480000000     0.033908   
H241     H      0.906830000000     0.793790000000     0.270100000000     0.0359112  
H242     H      0.084300000000     0.719470000000     0.361230000000     0.0274212  
H243     H      0.061260000000     0.839830000000     0.230120000000     0.0397456  
H244     H      0.095810000000     0.778860000000     0.293060000000     0.0328202  
H245     H      0.027510000000     0.733610000000     0.396840000000     0.0383686  
H246     H      0.976790000000     0.815430000000     0.142920000000     0.108763   
H247     H      0.053890000000     0.198250000000     0.181340000000     0.110314   
H248     H      0.992210000000     0.288840000000     0.422970000000     0.0359389  
H249     H      0.060760000000     0.294240000000     0.426320000000     0.0312665  
H250     H      0.957920000000     0.186800000000     0.277810000000     0.0351683  
H251     H      0.950070000000     0.253040000000     0.344610000000     0.0353454  
H252     H      0.082250000000     0.119990000000     0.248150000000     0.0200917  
H253     H      0.115420000000     0.260760000000     0.356280000000     0.0330405  
H254     H      0.123260000000     0.194480000000     0.289560000000     0.032163   
H255     H      0.014270000000     0.112660000000     0.248380000000     0.0290796  
H256     H      0.025830000000     0.360280000000     0.343930000000     0.109014   
N1       N      0.516950000000     0.158030000000     0.355700000000    -0.284558   
N2       N      0.515010000000     0.348040000000     0.161610000000    -0.27031    
N3       N      0.509410000000     0.845950000000     0.384000000000    -0.269935   
N4       N      0.495020000000     0.658090000000     0.189140000000    -0.252153   
N5       N      0.529600000000     0.878670000000     0.689610000000    -0.245124   
N6       N      0.486440000000     0.689870000000     0.880060000000    -0.268382   
N7       N      0.534760000000     0.190470000000     0.662360000000    -0.265036   
N8       N      0.516720000000     0.380810000000     0.853170000000    -0.281908   
N9       N      0.850010000000     0.373980000000     0.534330000000    -0.267914   
N10      N      0.657960000000     0.178960000000     0.473520000000    -0.277322   
N11      N      0.874150000000     0.686590000000     0.526840000000    -0.253458   
N12      N      0.676430000000     0.868400000000     0.497780000000    -0.271681   
N13      N      0.351270000000     0.168590000000     0.520420000000    -0.272455   
N14      N      0.153990000000     0.355650000000     0.485490000000    -0.279445   
N15      N      0.181610000000     0.667950000000     0.489770000000    -0.268194   
N16      N      0.369670000000     0.857420000000     0.557250000000    -0.249866   
N17      N      0.849990000000     0.507580000000     0.377530000000    -0.27062    
N18      N      0.657090000000     0.536000000000     0.181760000000    -0.247395   
N19      N      0.159110000000     0.472480000000     0.363190000000    -0.280173   
N20      N      0.351010000000     0.483650000000     0.168890000000    -0.270217   
N21      N      0.183840000000     0.511410000000     0.667090000000    -0.264508   
N22      N      0.371010000000     0.483100000000     0.860520000000    -0.284843   
N23      N      0.873940000000     0.551740000000     0.682600000000    -0.245899   
N24      N      0.676510000000     0.545290000000     0.874500000000    -0.261299   
N25      N      0.845860000000     0.887680000000     0.988110000000    -0.248478   
N26      N      0.647620000000     0.690940000000     0.047610000000    -0.243673   
N27      N      0.876020000000     0.193720000000     0.046710000000    -0.269585   
N28      N      0.686620000000     0.385910000000     0.992810000000    -0.259254   
N29      N      0.337930000000     0.657670000000     0.023590000000    -0.271774   
N30      N      0.150340000000     0.847160000000     0.035500000000    -0.270655   
N31      N      0.185060000000     0.159970000000     0.059700000000    -0.27496    
N32      N      0.375300000000     0.349380000000     0.989600000000    -0.28023    
N33      N      0.687950000000     0.047280000000     0.659620000000    -0.261853   
N34      N      0.878120000000     0.047380000000     0.853990000000    -0.245305   
N35      N      0.380590000000     0.017690000000     0.693490000000    -0.246166   
N36      N      0.188380000000     0.029320000000     0.881590000000    -0.262354   
N37      N      0.340850000000     0.005200000000     0.386930000000    -0.267989   
N38      N      0.154860000000     0.011730000000     0.188640000000    -0.282547   
N39      N      0.845320000000     0.027950000000     0.161140000000    -0.271253   
N40      N      0.645050000000     0.047340000000     0.352350000000    -0.281707   
N41      N      0.029530000000     0.379960000000     0.692290000000    -0.259864   
N42      N      0.059490000000     0.191200000000     0.881840000000    -0.262484   
N43      N      0.007770000000     0.884510000000     0.852710000000    -0.244819   
N44      N      0.026870000000     0.689480000000     0.660400000000    -0.245337   
N45      N      0.026090000000     0.663780000000     0.353150000000    -0.269989   
N46      N      0.978510000000     0.853020000000     0.157540000000    -0.26876    
N47      N      0.044680000000     0.159620000000     0.188840000000    -0.282796   
N48      N      0.023820000000     0.351960000000     0.382970000000    -0.278744   
O1       O      0.038190000000     0.147810000000     0.101940000000    -1.05392    
O2       O      0.996310000000     0.880960000000     0.075710000000    -0.778802   
O3       O      0.932600000000     0.020410000000     0.145820000000    -1.03411    
O4       O      0.071640000000     0.012130000000     0.157930000000    -1.0933     
O5       O      0.142190000000     0.016020000000     0.101440000000    -1.05564    
O6       O      0.874100000000     0.035630000000     0.077920000000    -0.777583   
O7       O      0.992450000000     0.940590000000     0.144320000000    -1.0194     
O8       O      0.023510000000     0.078270000000     0.158330000000    -1.08671    
O9       O      0.060260000000     0.962650000000     0.074880000000    -2.08442    
O10      O      0.967760000000     0.079500000000     0.076090000000    -2.08333    
O11      O      0.949150000000     0.969440000000     0.067020000000    -0.870475   
O12      O      0.027280000000     0.032210000000     0.032770000000    -2.55452    
O13      O      0.005190000000     0.897910000000     0.940080000000    -0.712647   
O14      O      0.042630000000     0.162520000000     0.964080000000    -0.933038   
O15      O      0.876250000000     0.970860000000     0.001350000000    -0.728366   
O16      O      0.140630000000     0.936080000000     0.032500000000    -0.938473   
O17      O      0.154920000000     0.076160000000     0.047410000000    -1.0209     
O18      O      0.889040000000     0.107360000000     0.027410000000    -0.771637   
O19      O      0.962050000000     0.042000000000     0.883440000000    -0.597359   
O20      O      0.100240000000     0.032430000000     0.893700000000    -0.635299   
O21      O      0.890990000000     0.041660000000     0.941430000000    -0.709702   
O22      O      0.156700000000     0.018730000000     0.963450000000    -0.937265   
O23      O      0.934050000000     0.898870000000     0.999300000000    -0.725203   
O24      O      0.959490000000     0.164790000000     0.035780000000    -0.941921   
O25      O      0.097920000000     0.147360000000     0.048620000000    -1.02496    
O26      O      0.068950000000     0.880310000000     0.022790000000    -0.780123   
O27      O      0.020710000000     0.967960000000     0.882630000000    -0.597563   
O28      O      0.042230000000     0.104680000000     0.893960000000    -0.643246   
O29      O      0.081020000000     0.075750000000     0.982600000000    -1.96969    
O30      O      0.969320000000     0.986790000000     0.964990000000    -1.58706    
O31      O      0.971240000000     0.088590000000     0.965910000000    -1.24142    
O32      O      0.068760000000     0.965920000000     0.964720000000    -1.23718    
O33      O      0.016580000000     0.381090000000     0.466240000000    -1.02117    
O34      O      0.026580000000     0.650280000000     0.440440000000    -0.797274   
O35      O      0.937310000000     0.510140000000     0.394610000000    -1.0207     
O36      O      0.075980000000     0.491930000000     0.388510000000    -1.05576    
O37      O      0.144860000000     0.494860000000     0.447060000000    -1.0359     
O38      O      0.876130000000     0.520020000000     0.461060000000    -0.796674   
O39      O      0.014020000000     0.580470000000     0.383090000000    -1.00805    
O40      O      0.017160000000     0.439600000000     0.397080000000    -1.05145    
O41      O      0.071970000000     0.561820000000     0.459350000000    -2.09824    
O42      O      0.960740000000     0.463640000000     0.475830000000    -2.06918    
O43      O      0.961100000000     0.575300000000     0.462650000000    -0.867727   
O44      O      0.026530000000     0.508510000000     0.512090000000    -2.55902    
O45      O      0.025200000000     0.659710000000     0.576740000000    -0.714333   
O46      O      0.020530000000     0.393060000000     0.605060000000    -0.92168    
O47      O      0.888690000000     0.598500000000     0.526180000000    -0.75029    
O48      O      0.155080000000     0.582970000000     0.502620000000    -0.950636   
O49      O      0.142250000000     0.442710000000     0.501440000000    -1.06026    
O50      O      0.877210000000     0.459000000000     0.527830000000    -0.772015   
O51      O      0.958510000000     0.538890000000     0.657000000000    -0.583951   
O52      O      0.096890000000     0.522560000000     0.651740000000    -0.629025   
O53      O      0.889520000000     0.539180000000     0.596550000000    -0.722939   
O54      O      0.155440000000     0.510530000000     0.583390000000    -0.963436   
O55      O      0.958050000000     0.658660000000     0.516500000000    -0.74509    
O56      O      0.937780000000     0.390960000000     0.534450000000    -0.942505   
O57      O      0.075290000000     0.382540000000     0.514890000000    -1.04129    
O58      O      0.094690000000     0.651360000000     0.498830000000    -0.766744   
O59      O      0.028710000000     0.601090000000     0.647160000000    -0.592911   
O60      O      0.027040000000     0.463700000000     0.662280000000    -0.642582   
O61      O      0.072210000000     0.466610000000     0.571870000000    -1.98437    
O62      O      0.976720000000     0.574730000000     0.567110000000    -1.60486    
O63      O      0.961340000000     0.476340000000     0.585590000000    -1.25596    
O64      O      0.078100000000     0.578820000000     0.568580000000    -1.25009    
O65      O      0.636560000000     0.037150000000     0.439680000000    -1.0535     
O66      O      0.371350000000     0.011310000000     0.470020000000    -0.774648   
O67      O      0.504500000000     0.934050000000     0.398230000000    -1.01722    
O68      O      0.508610000000     0.074860000000     0.386230000000    -1.08288    
O69      O      0.514530000000     0.145490000000     0.442880000000    -1.0769     
O70      O      0.517910000000     0.875650000000     0.466820000000    -0.801964   
O71      O      0.428710000000     0.004950000000     0.399850000000    -1.02488    
O72      O      0.566900000000     0.021360000000     0.384180000000    -1.07502    
O73      O      0.456800000000     0.067190000000     0.469980000000    -2.10209    
O74      O      0.566650000000     0.966530000000     0.466760000000    -2.08442    
O75      O      0.455990000000     0.955020000000     0.477740000000    -0.874024   
O76      O      0.524110000000     0.028920000000     0.510940000000    -2.57397    
O77      O      0.391440000000     0.015080000000     0.605880000000    -0.707418   
O78      O      0.656550000000     0.034690000000     0.577360000000    -0.927323   
O79      O      0.454600000000     0.882420000000     0.544160000000    -0.739799   
O80      O      0.437870000000     0.149440000000     0.515740000000    -0.990617   
O81      O      0.575200000000     0.153850000000     0.492970000000    -1.06235    
O82      O      0.591480000000     0.886030000000     0.517890000000    -0.771398   
O83      O      0.532010000000     0.963220000000     0.660230000000    -0.591709   
O84      O      0.532010000000     0.102040000000     0.650170000000    -0.633685   
O85      O      0.525130000000     0.892190000000     0.602290000000    -0.720558   
O86      O      0.522000000000     0.159530000000     0.580470000000    -0.963015   
O87      O      0.386220000000     0.944470000000     0.545320000000    -0.719781   
O88      O      0.650860000000     0.953860000000     0.503100000000    -0.967964   
O89      O      0.642470000000     0.092540000000     0.491760000000    -1.02278    
O90      O      0.376250000000     0.082770000000     0.525760000000    -0.756054   
O91      O      0.463220000000     0.026610000000     0.661860000000    -0.597481   
O92      O      0.600320000000     0.038750000000     0.648460000000    -0.633385   
O93      O      0.572420000000     0.080480000000     0.560510000000    -2.02065    
O94      O      0.476700000000     0.974530000000     0.579360000000    -1.58753    
O95      O      0.578050000000     0.969580000000     0.576820000000    -1.25019    
O96      O      0.462780000000     0.075070000000     0.580250000000    -1.22623    
O97      O      0.459320000000     0.379780000000     0.997430000000    -1.01967    
O98      O      0.426200000000     0.647810000000     0.027120000000    -0.772296   
O99      O      0.376670000000     0.497520000000     0.085190000000    -1.02078    
O100     O      0.385580000000     0.497060000000     0.945990000000    -1.09012    
O101     O      0.452230000000     0.508620000000     0.886000000000    -1.09199    
O102     O      0.437750000000     0.495080000000     0.152420000000    -0.796974   
O103     O      0.371150000000     0.575020000000     0.019310000000    -1.03594    
O104     O      0.388510000000     0.436720000000     0.000540000000    -1.0707     
O105     O      0.453370000000     0.568260000000     0.967930000000    -2.09539    
O106     O      0.462270000000     0.453410000000     0.062440000000    -2.10217    
O107     O      0.445770000000     0.563080000000     0.078530000000    -0.870697   
O108     O      0.503580000000     0.508880000000     0.008850000000    -2.58027    
O109     O      0.564220000000     0.659830000000     0.038670000000    -0.688249   
O110     O      0.598350000000     0.396100000000     0.001700000000    -0.937364   
O111     O      0.500740000000     0.574260000000     0.159110000000    -0.756304   
O112     O      0.501690000000     0.603120000000     0.894440000000    -0.980707   
O113     O      0.516000000000     0.464390000000     0.883260000000    -1.07402    
O114     O      0.507830000000     0.435980000000     0.148060000000    -0.783786   
O115     O      0.640830000000     0.531840000000     0.094910000000    -0.604237   
O116     O      0.650470000000     0.538330000000     0.958700000000    -0.636965   
O117     O      0.573710000000     0.519280000000     0.155970000000    -0.731975   
O118     O      0.589240000000     0.537330000000     0.891710000000    -0.945829   
O119     O      0.496230000000     0.646050000000     0.101480000000    -0.718613   
O120     O      0.522270000000     0.378920000000     0.078780000000    -0.944703   
O121     O      0.515840000000     0.393570000000     0.940310000000    -1.04951    
O122     O      0.490100000000     0.660580000000     0.963930000000    -0.745374   
O123     O      0.636360000000     0.602680000000     0.035170000000    -0.592575   
O124     O      0.655330000000     0.466330000000     0.014780000000    -0.636174   
O125     O      0.569210000000     0.476830000000     0.964330000000    -2.00644    
O126     O      0.551640000000     0.567300000000     0.073890000000    -1.59798    
O127     O      0.572130000000     0.467300000000     0.074640000000    -1.25642    
O128     O      0.562940000000     0.588140000000     0.976280000000    -1.23359    
Tb1      Tb     0.006420000000     0.014750000000     0.105690000000     6.45697    
Tb2      Tb     0.007950000000     0.937240000000     0.014910000000     4.28612    
Tb3      Tb     0.024630000000     0.110660000000     0.028230000000     6.16775    
Tb4      Tb     0.930330000000     0.034890000000     0.016070000000     4.26281    
Tb5      Tb     0.102760000000     0.012330000000     0.027530000000     6.16211    
Tb6      Tb     0.027370000000     0.033310000000     0.935790000000     3.22039    
Tb7      Tb     0.010430000000     0.514170000000     0.436150000000     6.28467    
Tb8      Tb     0.024070000000     0.606630000000     0.510960000000     4.31966    
Tb9      Tb     0.010850000000     0.433810000000     0.531270000000     6.15262    
Tb10     Tb     0.930650000000     0.524780000000     0.524220000000     4.3859     
Tb11     Tb     0.104290000000     0.516180000000     0.517040000000     6.32108    
Tb12     Tb     0.025540000000     0.526230000000     0.607310000000     3.16842    
Tb13     Tb     0.504060000000     0.009230000000     0.438180000000     6.40666    
Tb14     Tb     0.428910000000     0.016460000000     0.530300000000     4.20431    
Tb15     Tb     0.601930000000     0.021790000000     0.513960000000     6.21216    
Tb16     Tb     0.521120000000     0.932160000000     0.527810000000     4.36101    
Tb17     Tb     0.509940000000     0.105960000000     0.516630000000     6.45749    
Tb18     Tb     0.527500000000     0.029270000000     0.607880000000     3.18173    
Tb19     Tb     0.425830000000     0.510640000000     0.018000000000     6.41001    
Tb20     Tb     0.498880000000     0.605830000000     0.027340000000     4.1437     
Tb21     Tb     0.523210000000     0.433000000000     0.013940000000     6.15732    
Tb22     Tb     0.506150000000     0.509260000000     0.106120000000     4.42217    
Tb23     Tb     0.516380000000     0.530010000000     0.935070000000     6.48477    
Tb24     Tb     0.598300000000     0.527910000000     0.022870000000     3.20944    


