data_structure

_audit_creation_method RASPA-1.0
_audit_creation_date 2023-5-19
_audit_author_name 'Poobodin Mano'

_cell_length_a    25.7836
_cell_length_b    25.7894
_cell_length_c    25.7669
_cell_angle_alpha 90
_cell_angle_beta  90
_cell_angle_gamma 90
_cell_volume      17133.5

_symmetry_cell_setting          triclinic
_symmetry_space_group_name_Hall 'P 1'
_symmetry_space_group_name_H-M  'P 1'
_symmetry_Int_Tables_number     1

_symmetry_equiv_pos_as_xyz 'x,y,z'

loop_
_atom_site_label
_atom_site_type_symbol
_atom_site_fract_x
_atom_site_fract_y
_atom_site_fract_z
_atom_site_charge
C1       C      0.034950000000     0.136980000000     0.137720000000     0.722235   
C2       C      0.018340000000     0.896470000000     0.140900000000     0.67176    
C3       C      0.895760000000     0.023940000000     0.140110000000     0.671217   
C4       C      0.136730000000     0.033640000000     0.137590000000     0.729222   
C5       C      0.012240000000     0.897980000000     0.902110000000     0.56215    
C6       C      0.026320000000     0.136780000000     0.897300000000     0.647654   
C7       C      0.897200000000     0.899600000000     0.018120000000     0.578507   
C8       C      0.136260000000     0.895540000000     0.030830000000     0.694748   
C9       C      0.138330000000     0.135660000000     0.031650000000     0.708161   
C10      C      0.898020000000     0.138690000000     0.028160000000     0.69299    
C11      C      0.899150000000     0.014100000000     0.901810000000     0.570549   
C12      C      0.137860000000     0.021020000000     0.897630000000     0.646152   
C13      C      0.035870000000     0.397140000000     0.400170000000     0.62371    
C14      C      0.999410000000     0.638340000000     0.401760000000     0.64894    
C15      C      0.897840000000     0.535810000000     0.399370000000     0.631426   
C16      C      0.139300000000     0.500180000000     0.402580000000     0.637063   
C17      C      0.014150000000     0.635340000000     0.640940000000     0.570915   
C18      C      0.024860000000     0.398070000000     0.638140000000     0.563749   
C19      C      0.900170000000     0.635100000000     0.503900000000     0.591547   
C20      C      0.139540000000     0.639020000000     0.512970000000     0.628294   
C21      C      0.134950000000     0.400500000000     0.504830000000     0.579172   
C22      C      0.896320000000     0.395660000000     0.508400000000     0.628257   
C23      C      0.898500000000     0.518550000000     0.638530000000     0.586433   
C24      C      0.135800000000     0.508940000000     0.640540000000     0.559444   
C25      C      0.636770000000     0.034040000000     0.402060000000     0.724675   
C26      C      0.396010000000     0.022800000000     0.399170000000     0.669703   
C27      C      0.521730000000     0.896640000000     0.399030000000     0.674562   
C28      C      0.532700000000     0.137630000000     0.402310000000     0.730755   
C29      C      0.399040000000     0.013310000000     0.637620000000     0.570393   
C30      C      0.637740000000     0.023900000000     0.642040000000     0.642423   
C31      C      0.399260000000     0.899450000000     0.522200000000     0.595379   
C32      C      0.395880000000     0.138510000000     0.510660000000     0.683414   
C33      C      0.635840000000     0.136350000000     0.504270000000     0.719424   
C34      C      0.638290000000     0.896340000000     0.510360000000     0.678912   
C35      C      0.512260000000     0.899190000000     0.637630000000     0.571412   
C36      C      0.522580000000     0.137860000000     0.642490000000     0.648183   
C37      C      0.399690000000     0.396660000000     0.008380000000     0.721608   
C38      C      0.396640000000     0.637740000000     0.017930000000     0.678299   
C39      C      0.399300000000     0.512790000000     0.143080000000     0.678564   
C40      C      0.397900000000     0.500290000000     0.901640000000     0.724646   
C41      C      0.635230000000     0.637290000000     0.021050000000     0.56037    
C42      C      0.639840000000     0.398440000000     0.011530000000     0.655139   
C43      C      0.521730000000     0.636700000000     0.137560000000     0.591442   
C44      C      0.505950000000     0.638250000000     0.898650000000     0.687529   
C45      C      0.501350000000     0.398160000000     0.901920000000     0.724393   
C46      C      0.512860000000     0.397720000000     0.142070000000     0.689169   
C47      C      0.637270000000     0.524310000000     0.137110000000     0.56683    
C48      C      0.637930000000     0.510890000000     0.898130000000     0.654463   
C49      C      0.536620000000     0.164180000000     0.309420000000     0.0221744  
C50      C      0.514080000000     0.371590000000     0.235280000000     0.0101513  
C51      C      0.515510000000     0.304940000000     0.168590000000     0.0190791  
C52      C      0.520840000000     0.281470000000     0.220810000000    -0.000851593
C53      C      0.520090000000     0.319440000000     0.258880000000     0.00459708 
C54      C      0.525140000000     0.306930000000     0.311570000000    -0.058777   
C55      C      0.535630000000     0.230650000000     0.376230000000     0.0216982  
C56      C      0.526570000000     0.228900000000     0.233240000000    -0.0562809  
C57      C      0.530980000000     0.254330000000     0.324000000000     0.000125001
C58      C      0.531620000000     0.216400000000     0.285910000000    -0.00157722 
C59      C      0.527310000000     0.663070000000     0.230320000000     0.00581011 
C60      C      0.523670000000     0.871000000000     0.305740000000     0.0172193  
C61      C      0.526060000000     0.804050000000     0.372160000000     0.0103244  
C62      C      0.527050000000     0.780640000000     0.319700000000     0.00413942 
C63      C      0.525720000000     0.818760000000     0.281780000000     0.000212457
C64      C      0.525380000000     0.806230000000     0.228860000000    -0.0585056  
C65      C      0.525230000000     0.729750000000     0.163640000000     0.00535252 
C66      C      0.528040000000     0.727890000000     0.306900000000    -0.0603539  
C67      C      0.526560000000     0.753440000000     0.216050000000     0.00376106 
C68      C      0.527800000000     0.715370000000     0.254030000000     0.00453434 
C69      C      0.506170000000     0.872650000000     0.730460000000    -0.00149296 
C70      C      0.501320000000     0.664410000000     0.805540000000     0.0183023  
C71      C      0.500590000000     0.731100000000     0.872180000000     0.00898354 
C72      C      0.500510000000     0.754810000000     0.819720000000     0.00667348 
C73      C      0.500780000000     0.716790000000     0.781690000000    -0.000139727
C74      C      0.502130000000     0.729490000000     0.728780000000    -0.057211   
C75      C      0.505870000000     0.806130000000     0.663650000000     0.0047127  
C76      C      0.501870000000     0.807630000000     0.806990000000    -0.0614944  
C77      C      0.503140000000     0.782340000000     0.716050000000     0.0036118  
C78      C      0.503150000000     0.820320000000     0.754110000000     0.00895923 
C79      C      0.496740000000     0.371480000000     0.809190000000     0.0225328  
C80      C      0.519800000000     0.164090000000     0.735560000000     0.00295998 
C81      C      0.519820000000     0.230710000000     0.668820000000     0.0170111  
C82      C      0.513310000000     0.254160000000     0.720910000000    -0.000680471
C83      C      0.513310000000     0.216200000000     0.759010000000     0.00750197 
C84      C      0.507500000000     0.228730000000     0.811620000000    -0.0599936  
C85      C      0.496840000000     0.305110000000     0.876130000000     0.0205441  
C86      C      0.507460000000     0.306730000000     0.733240000000    -0.055914   
C87      C      0.501560000000     0.281330000000     0.823940000000     0.00132756 
C88      C      0.501530000000     0.319230000000     0.785800000000    -0.001732   
C89      C      0.728430000000     0.162250000000     0.495710000000     0.0211614  
C90      C      0.803520000000     0.369910000000     0.502630000000     0.00903116 
C91      C      0.870100000000     0.303110000000     0.500710000000     0.00664488 
C92      C      0.817750000000     0.279680000000     0.497920000000     0.0049632  
C93      C      0.779790000000     0.317770000000     0.498880000000     0.00319113 
C94      C      0.726960000000     0.305290000000     0.498040000000    -0.0579199  
C95      C      0.661880000000     0.228990000000     0.496760000000     0.0220312  
C96      C      0.805000000000     0.226950000000     0.496320000000    -0.0587706  
C97      C      0.714230000000     0.252560000000     0.496090000000    -0.00061587 
C98      C      0.752170000000     0.214490000000     0.495380000000     0.000226145
C99      C      0.807080000000     0.661610000000     0.498070000000     0.00609565 
C100     C      0.731420000000     0.869950000000     0.505950000000     0.0156566  
C101     C      0.664820000000     0.803350000000     0.503310000000     0.00891968 
C102     C      0.717330000000     0.779600000000     0.501470000000     0.00467735 
C103     C      0.755300000000     0.817590000000     0.502930000000     0.00147367 
C104     C      0.808230000000     0.804870000000     0.502470000000    -0.0582643  
C105     C      0.873580000000     0.728240000000     0.500420000000     0.00561316 
C106     C      0.730200000000     0.726740000000     0.499540000000    -0.0596676  
C107     C      0.821080000000     0.752030000000     0.500380000000     0.00393125 
C108     C      0.783140000000     0.714030000000     0.499000000000     0.00397817 
C109     C      0.228080000000     0.373840000000     0.501710000000     0.00481749 
C110     C      0.302880000000     0.165070000000     0.503760000000     0.00883464 
C111     C      0.369570000000     0.231590000000     0.506580000000     0.0174094  
C112     C      0.317240000000     0.255510000000     0.503760000000     0.000249875
C113     C      0.279190000000     0.217590000000     0.502180000000     0.00496852 
C114     C      0.226350000000     0.230520000000     0.500340000000    -0.0603431  
C115     C      0.161350000000     0.307450000000     0.499070000000     0.00394676 
C116     C      0.304610000000     0.308430000000     0.503530000000    -0.0580952  
C117     C      0.213720000000     0.283460000000     0.500020000000     0.00498623 
C118     C      0.251780000000     0.321340000000     0.501540000000     0.00367996 
C119     C      0.165480000000     0.731890000000     0.513590000000     0.00813114 
C120     C      0.373250000000     0.806580000000     0.523130000000     0.00646962 
C121     C      0.306430000000     0.873150000000     0.524610000000     0.00553755 
C122     C      0.282910000000     0.820870000000     0.521940000000     0.00492039 
C123     C      0.321010000000     0.782920000000     0.520990000000     0.00417664 
C124     C      0.308560000000     0.730230000000     0.517350000000    -0.0600411  
C125     C      0.232320000000     0.665370000000     0.511360000000     0.00744062 
C126     C      0.230170000000     0.808240000000     0.519530000000    -0.0601079  
C127     C      0.255820000000     0.717610000000     0.514880000000     0.00457791 
C128     C      0.217710000000     0.755540000000     0.516040000000     0.00439327 
C129     C      0.871610000000     0.542620000000     0.306260000000     0.0123099  
C130     C      0.663560000000     0.531560000000     0.230120000000     0.00388509 
C131     C      0.730380000000     0.531370000000     0.163650000000    -0.00199974 
C132     C      0.753960000000     0.535520000000     0.216170000000     0.00692829 
C133     C      0.715840000000     0.535470000000     0.254070000000     0.00441551 
C134     C      0.728360000000     0.537790000000     0.307030000000    -0.0598224  
C135     C      0.804800000000     0.541770000000     0.372620000000     0.00777262 
C136     C      0.806780000000     0.538190000000     0.229180000000    -0.059969   
C137     C      0.781160000000     0.540480000000     0.320020000000     0.00359853 
C138     C      0.819280000000     0.540820000000     0.282160000000     0.00132664 
C139     C      0.166260000000     0.491660000000     0.310470000000     0.01626    
C140     C      0.373650000000     0.507780000000     0.236100000000     0.0100068  
C141     C      0.306800000000     0.506410000000     0.169490000000     0.019705   
C142     C      0.283540000000     0.501700000000     0.221750000000    -0.00203053 
C143     C      0.321570000000     0.502720000000     0.259790000000     0.00505997 
C144     C      0.309050000000     0.500120000000     0.312620000000    -0.0613422  
C145     C      0.232510000000     0.494670000000     0.377470000000     0.00755053 
C146     C      0.230940000000     0.497530000000     0.234300000000    -0.0565069  
C147     C      0.256360000000     0.496020000000     0.325180000000     0.00526943 
C148     C      0.218480000000     0.494550000000     0.287050000000    -0.00180011 
C149     C      0.370870000000     0.493260000000     0.808810000000     0.0207384  
C150     C      0.162190000000     0.501470000000     0.733710000000    -0.00225018 
C151     C      0.228780000000     0.501420000000     0.667020000000     0.00231448 
C152     C      0.252580000000     0.497790000000     0.719470000000     0.00460149 
C153     C      0.214630000000     0.497830000000     0.757530000000     0.00728112 
C154     C      0.227510000000     0.495950000000     0.810490000000    -0.0595478  
C155     C      0.304550000000     0.493330000000     0.875720000000     0.0185881  
C156     C      0.305480000000     0.495880000000     0.732200000000    -0.0579911  
C157     C      0.280450000000     0.493830000000     0.823220000000     0.00116217 
C158     C      0.318340000000     0.493790000000     0.785100000000    -0.000661569
C159     C      0.871640000000     0.519650000000     0.731070000000    -0.000192684
C160     C      0.663750000000     0.507800000000     0.805040000000     0.0178165  
C161     C      0.730480000000     0.509770000000     0.871750000000     0.00366589 
C162     C      0.754020000000     0.511240000000     0.819490000000     0.00931113 
C163     C      0.716050000000     0.510010000000     0.781380000000    -0.000616806
C164     C      0.728730000000     0.511800000000     0.728580000000    -0.0569094  
C165     C      0.805360000000     0.516920000000     0.663930000000     0.00683861 
C166     C      0.806700000000     0.514540000000     0.807090000000    -0.0629665  
C167     C      0.781500000000     0.514940000000     0.716150000000     0.00283297 
C168     C      0.819350000000     0.516390000000     0.754370000000     0.00970511 
C169     C      0.870100000000     0.806570000000     0.016290000000    -0.00446943 
C170     C      0.661390000000     0.730880000000     0.022930000000    -0.00559082 
C171     C      0.728230000000     0.664530000000     0.021390000000    -0.00985891 
C172     C      0.751930000000     0.717060000000     0.020530000000     0.00856803 
C173     C      0.713880000000     0.754970000000     0.021320000000     0.00604345 
C174     C      0.726680000000     0.807940000000     0.020240000000    -0.0619971  
C175     C      0.803650000000     0.873310000000     0.017310000000    -0.00490364 
C176     C      0.804810000000     0.729900000000     0.018750000000    -0.0632828  
C177     C      0.779630000000     0.820800000000     0.018390000000     0.00592758 
C178     C      0.817590000000     0.782800000000     0.017740000000     0.00640387 
C179     C      0.805580000000     0.165250000000     0.030330000000     0.00502385 
C180     C      0.732600000000     0.372430000000     0.009790000000    -0.00331172 
C181     C      0.665730000000     0.305860000000     0.011000000000     0.0115447  
C182     C      0.717760000000     0.282390000000     0.015270000000     0.000533785
C183     C      0.755930000000     0.320290000000     0.014480000000     0.00845651 
C184     C      0.808490000000     0.307780000000     0.018970000000    -0.0621361  
C185     C      0.872680000000     0.231570000000     0.028430000000     0.0114863  
C186     C      0.729910000000     0.229880000000     0.020800000000    -0.0599271  
C187     C      0.820650000000     0.255220000000     0.024390000000     0.00283286 
C188     C      0.782430000000     0.217380000000     0.025380000000     0.00428241 
C189     C      0.303640000000     0.662660000000     0.021990000000     0.0119742  
C190     C      0.228690000000     0.869670000000     0.033680000000     0.0129111  
C191     C      0.162140000000     0.802810000000     0.036320000000     0.0118775  
C192     C      0.214440000000     0.779400000000     0.033550000000     0.00257005 
C193     C      0.252280000000     0.817610000000     0.031980000000     0.00256309 
C194     C      0.304850000000     0.805500000000     0.027130000000    -0.061331   
C195     C      0.369680000000     0.730000000000     0.018760000000     0.0036805  
C196     C      0.227150000000     0.726770000000     0.030550000000    -0.0590884  
C197     C      0.317540000000     0.752950000000     0.024170000000     0.00531599 
C198     C      0.279820000000     0.714630000000     0.025930000000    -1.73093e-05
C199     C      0.306570000000     0.369720000000     0.008000000000     0.0123536  
C200     C      0.231840000000     0.161930000000     0.031710000000     0.0107051  
C201     C      0.165470000000     0.228690000000     0.032270000000     0.0115588  
C202     C      0.217750000000     0.252230000000     0.026040000000     0.000155745
C203     C      0.255660000000     0.214190000000     0.025720000000     0.000629508
C204     C      0.308350000000     0.226750000000     0.019480000000    -0.0593282  
C205     C      0.373230000000     0.303240000000     0.007480000000     0.0116282  
C206     C      0.230340000000     0.304880000000     0.020110000000    -0.0590774  
C207     C      0.320950000000     0.279450000000     0.013560000000     0.000396533
C208     C      0.282970000000     0.317420000000     0.013850000000    -9.06391e-05
C209     C      0.664150000000     0.024090000000     0.735050000000    -0.00578385 
C210     C      0.872420000000     0.013460000000     0.808970000000    -0.00877915 
C211     C      0.806020000000     0.012480000000     0.875970000000    -0.00440129 
C212     C      0.782140000000     0.015320000000     0.823720000000     0.00706528 
C213     C      0.820020000000     0.015850000000     0.785540000000     0.007991   
C214     C      0.807260000000     0.019120000000     0.732820000000    -0.0614265  
C215     C      0.730690000000     0.024880000000     0.668170000000     0.00726326 
C216     C      0.729310000000     0.018090000000     0.811310000000    -0.0635693  
C217     C      0.754450000000     0.021840000000     0.720420000000     0.00218173 
C218     C      0.716540000000     0.021360000000     0.758570000000     0.00896866 
C219     C      0.164230000000     0.020690000000     0.804650000000    -0.00499609 
C220     C      0.372420000000     0.011590000000     0.730450000000    -0.00854075 
C221     C      0.305950000000     0.010580000000     0.663510000000    -0.00427278 
C222     C      0.282110000000     0.012780000000     0.715800000000     0.00662014 
C223     C      0.320040000000     0.013280000000     0.753950000000     0.00765521 
C224     C      0.307330000000     0.016100000000     0.806710000000    -0.061518   
C225     C      0.230810000000     0.021180000000     0.871480000000     0.00784462 
C226     C      0.229300000000     0.015220000000     0.728290000000    -0.0635096  
C227     C      0.254530000000     0.018420000000     0.819190000000     0.00214859 
C228     C      0.216580000000     0.018060000000     0.781070000000     0.00843655 
C229     C      0.370450000000     0.028190000000     0.305960000000     0.0092873  
C230     C      0.162800000000     0.040310000000     0.230420000000     0.0218608  
C231     C      0.229560000000     0.040690000000     0.163860000000     0.0218159  
C232     C      0.253190000000     0.039150000000     0.216330000000    -0.00186313 
C233     C      0.215060000000     0.039050000000     0.254240000000    -0.000652939
C234     C      0.227440000000     0.036020000000     0.307080000000    -0.0602885  
C235     C      0.303410000000     0.028770000000     0.372320000000     0.00115344 
C236     C      0.305920000000     0.035900000000     0.229160000000    -0.0579639  
C237     C      0.280140000000     0.033110000000     0.319920000000     0.0048838  
C238     C      0.318330000000     0.032920000000     0.282050000000    -0.000143839
C239     C      0.662680000000     0.041500000000     0.309200000000     0.0215937  
C240     C      0.870140000000     0.028220000000     0.233280000000     0.00936972 
C241     C      0.803180000000     0.030940000000     0.166890000000     0.00143728 
C242     C      0.779890000000     0.034360000000     0.219360000000     0.00470114 
C243     C      0.818070000000     0.032820000000     0.257220000000     0.000503417
C244     C      0.805710000000     0.034570000000     0.310140000000    -0.0581377  
C245     C      0.729600000000     0.038920000000     0.375550000000     0.021186   
C246     C      0.727220000000     0.037720000000     0.232290000000    -0.0600152  
C247     C      0.753050000000     0.038100000000     0.323050000000    -0.00122446 
C248     C      0.714880000000     0.039630000000     0.285210000000    -0.000701767
C249     C      0.032090000000     0.229430000000     0.871260000000     0.00994834 
C250     C      0.031380000000     0.305050000000     0.663400000000    -0.00399559 
C251     C      0.031510000000     0.371270000000     0.730600000000    -0.00706133 
C252     C      0.033600000000     0.318860000000     0.753870000000     0.00762138 
C253     C      0.033470000000     0.281050000000     0.715610000000     0.0071302  
C254     C      0.033310000000     0.228170000000     0.728010000000    -0.0633093  
C255     C      0.031660000000     0.162900000000     0.804360000000    -0.00340385 
C256     C      0.033670000000     0.306000000000     0.806630000000    -0.0609929  
C257     C      0.033570000000     0.215290000000     0.780820000000     0.00843314 
C258     C      0.033790000000     0.253170000000     0.819010000000     0.00182586 
C259     C      0.008810000000     0.662040000000     0.734130000000    -0.00887184 
C260     C      0.010320000000     0.870860000000     0.809090000000    -0.00886401 
C261     C      0.006780000000     0.804620000000     0.876030000000    -0.00476546 
C262     C      0.007130000000     0.780510000000     0.823560000000     0.0067986  
C263     C      0.009200000000     0.818340000000     0.785430000000     0.00859464 
C264     C      0.010980000000     0.805390000000     0.732560000000    -0.0625163  
C265     C      0.012700000000     0.728530000000     0.667460000000    -0.00341995 
C266     C      0.006620000000     0.727550000000     0.810870000000    -0.0626769  
C267     C      0.010390000000     0.752470000000     0.719880000000     0.00616954 
C268     C      0.008220000000     0.714590000000     0.757940000000     0.00858084 
C269     C      0.993900000000     0.731350000000     0.375970000000     0.0144638  
C270     C      0.013810000000     0.804060000000     0.167970000000     0.00293409 
C271     C      0.014420000000     0.871280000000     0.234160000000     0.0102588  
C272     C      0.008060000000     0.819420000000     0.258060000000     0.00164661 
C273     C      0.007500000000     0.781170000000     0.220250000000     0.00472067 
C274     C      0.001660000000     0.728760000000     0.232980000000    -0.0656807  
C275     C      0.991880000000     0.664710000000     0.309360000000     0.0210977  
C276     C      0.003240000000     0.807310000000     0.310840000000    -0.0653847  
C277     C      0.996520000000     0.716710000000     0.285680000000     0.00425181 
C278     C      0.997480000000     0.754820000000     0.323590000000     0.00776948 
C279     C      0.045760000000     0.229650000000     0.164480000000     0.0194268  
C280     C      0.040970000000     0.304010000000     0.373660000000     0.00601572 
C281     C      0.046590000000     0.370790000000     0.307500000000     0.0128254  
C282     C      0.046320000000     0.318510000000     0.283340000000    -0.000637628
C283     C      0.043180000000     0.280410000000     0.321090000000     0.00367509 
C284     C      0.041360000000     0.227660000000     0.307940000000    -0.0590655  
C285     C      0.040390000000     0.162980000000     0.230830000000     0.0210829  
C286     C      0.047770000000     0.306040000000     0.230320000000    -0.0576192  
C287     C      0.042970000000     0.215170000000     0.254950000000    -0.00108422 
C288     C      0.046070000000     0.253250000000     0.217160000000    -0.00108026 
H1       H      0.980330000000     0.981230000000     0.059060000000    -1.24182    
H2       H      0.049180000000     0.048520000000     0.050580000000    -1.0664     
H3       H      0.971730000000     0.105360000000     0.972790000000    -0.519592   
H4       H      0.104780000000     0.969030000000     0.973830000000    -0.526282   
H5       H      0.987480000000     0.548120000000     0.486030000000    -0.74382    
H6       H      0.048670000000     0.487050000000     0.486080000000    -1.50001    
H7       H      0.969640000000     0.430140000000     0.563770000000    -0.252501   
H8       H      0.104270000000     0.564810000000     0.566120000000    -0.276284   
H9       H      0.480830000000     0.981220000000     0.480660000000    -1.24641    
H10      H      0.548710000000     0.049200000000     0.489290000000    -1.05131    
H11      H      0.605330000000     0.970420000000     0.566370000000    -0.508563   
H12      H      0.469970000000     0.105540000000     0.566540000000    -0.538906   
H13      H      0.478930000000     0.554030000000     0.056750000000    -1.23734    
H14      H      0.486550000000     0.485810000000     0.988930000000    -1.07146    
H15      H      0.565410000000     0.430550000000     0.066450000000    -0.538984   
H16      H      0.562540000000     0.564530000000     0.930940000000    -0.55122    
H17      H      0.479740000000     0.291110000000     0.148890000000     0.0277436  
H18      H      0.477590000000     0.390440000000     0.248350000000     0.0333712  
H19      H      0.524440000000     0.336540000000     0.341340000000     0.0387358  
H20      H      0.526950000000     0.199250000000     0.203500000000     0.0367021  
H21      H      0.503380000000     0.138940000000     0.298580000000     0.0282814  
H22      H      0.571720000000     0.243620000000     0.395800000000     0.0280742  
H23      H      0.549490000000     0.295600000000     0.143720000000     0.0301952  
H24      H      0.547290000000     0.397200000000     0.245310000000     0.0338029  
H25      H      0.501910000000     0.240850000000     0.401120000000     0.0300429  
H26      H      0.573160000000     0.145130000000     0.296920000000     0.0264388  
H27      H      0.561610000000     0.793990000000     0.394400000000     0.0351025  
H28      H      0.558000000000     0.894590000000     0.294630000000     0.0296218  
H29      H      0.523900000000     0.835960000000     0.199250000000     0.0389914  
H30      H      0.528560000000     0.698130000000     0.336530000000     0.0396406  
H31      H      0.563010000000     0.641110000000     0.240370000000     0.0363154  
H32      H      0.489860000000     0.741550000000     0.141980000000     0.0330118  
H33      H      0.491580000000     0.790970000000     0.394500000000     0.0314358  
H34      H      0.487950000000     0.892140000000     0.294120000000     0.0274403  
H35      H      0.559940000000     0.740910000000     0.140610000000     0.0362997  
H36      H      0.492980000000     0.640390000000     0.243210000000     0.0335848  
H37      H      0.465010000000     0.741710000000     0.894100000000     0.0356626  
H38      H      0.466160000000     0.641990000000     0.794590000000     0.028935   
H39      H      0.502860000000     0.699790000000     0.699100000000     0.0390308  
H40      H      0.502410000000     0.837300000000     0.836700000000     0.0421243  
H41      H      0.471490000000     0.896240000000     0.740410000000     0.0386932  
H42      H      0.540910000000     0.792950000000     0.642250000000     0.0359591  
H43      H      0.535060000000     0.743500000000     0.894940000000     0.0350467  
H44      H      0.536220000000     0.642130000000     0.793540000000     0.0304936  
H45      H      0.470950000000     0.796420000000     0.640290000000     0.0371815  
H46      H      0.541440000000     0.893700000000     0.743590000000     0.0396355  
H47      H      0.556020000000     0.244530000000     0.649950000000     0.029046   
H48      H      0.555990000000     0.145200000000     0.749420000000     0.0347261  
H49      H      0.507860000000     0.199140000000     0.841410000000     0.0397367  
H50      H      0.507780000000     0.336380000000     0.703500000000     0.0375687  
H51      H      0.530060000000     0.396600000000     0.798290000000     0.0300874  
H52      H      0.460400000000     0.292710000000     0.895510000000     0.0288613  
H53      H      0.486400000000     0.240030000000     0.643190000000     0.0317674  
H54      H      0.486360000000     0.138510000000     0.744900000000     0.0369533  
H55      H      0.530240000000     0.294470000000     0.901270000000     0.031444   
H56      H      0.460250000000     0.390580000000     0.796660000000     0.0278483  
H57      H      0.893180000000     0.293920000000     0.465450000000     0.0348303  
H58      H      0.793420000000     0.394110000000     0.468400000000     0.0319412  
H59      H      0.697340000000     0.335000000000     0.499440000000     0.0384872  
H60      H      0.834600000000     0.197180000000     0.496410000000     0.0391761  
H61      H      0.738620000000     0.140570000000     0.459970000000     0.0286251  
H62      H      0.639590000000     0.241260000000     0.531590000000     0.0297543  
H63      H      0.891630000000     0.289320000000     0.535440000000     0.0357352  
H64      H      0.790790000000     0.390370000000     0.538400000000     0.0350174  
H65      H      0.639660000000     0.239800000000     0.461480000000     0.0289101  
H66      H      0.741190000000     0.139430000000     0.530020000000     0.0299867  
H67      H      0.642720000000     0.789770000000     0.537760000000     0.0336912  
H68      H      0.743620000000     0.890620000000     0.541780000000     0.0317296  
H69      H      0.837880000000     0.834550000000     0.503970000000     0.040046   
H70      H      0.700550000000     0.697020000000     0.498820000000     0.0396779  
H71      H      0.794740000000     0.638200000000     0.532130000000     0.0348608  
H72      H      0.895960000000     0.740240000000     0.465660000000     0.035494   
H73      H      0.642230000000     0.793950000000     0.467810000000     0.034683   
H74      H      0.742200000000     0.893960000000     0.471790000000     0.0309536  
H75      H      0.895760000000     0.739400000000     0.535690000000     0.0357643  
H76      H      0.796390000000     0.640450000000     0.462140000000     0.0345827  
H77      H      0.390320000000     0.243610000000     0.542430000000     0.0301692  
H78      H      0.289330000000     0.142840000000     0.538140000000     0.0330771  
H79      H      0.196590000000     0.200920000000     0.499470000000     0.0393647  
H80      H      0.334330000000     0.338030000000     0.505100000000     0.0387543  
H81      H      0.239160000000     0.395880000000     0.537090000000     0.0369498  
H82      H      0.140230000000     0.296850000000     0.463090000000     0.0347769  
H83      H      0.393520000000     0.242490000000     0.472420000000     0.0291697  
H84      H      0.293410000000     0.142650000000     0.468170000000     0.0338962  
H85      H      0.137880000000     0.295090000000     0.533080000000     0.0370035  
H86      H      0.240200000000     0.396320000000     0.467050000000     0.0350367  
H87      H      0.294860000000     0.893600000000     0.560770000000     0.0370767  
H88      H      0.394450000000     0.794290000000     0.558620000000     0.0361532  
H89      H      0.338310000000     0.700630000000     0.516420000000     0.0398238  
H90      H      0.200430000000     0.837860000000     0.520250000000     0.0402348  
H91      H      0.142130000000     0.741920000000     0.548450000000     0.0359421  
H92      H      0.244100000000     0.645410000000     0.475000000000     0.033161   
H93      H      0.294960000000     0.897210000000     0.490700000000     0.0345705  
H94      H      0.396680000000     0.795960000000     0.488510000000     0.0334108  
H95      H      0.243600000000     0.640850000000     0.545010000000     0.0355159  
H96      H      0.144170000000     0.744750000000     0.478380000000     0.0314792  
H97      H      0.743970000000     0.495960000000     0.143160000000     0.0375879  
H98      H      0.642780000000     0.496310000000     0.243690000000     0.0358688  
H99      H      0.698580000000     0.537150000000     0.336630000000     0.0395367  
H100     H      0.836610000000     0.537860000000     0.199620000000     0.0392333  
H101     H      0.895420000000     0.508660000000     0.294490000000     0.0257781  
H102     H      0.792950000000     0.577250000000     0.393890000000     0.0332022  
H103     H      0.739940000000     0.565780000000     0.139490000000     0.0370561  
H104     H      0.639580000000     0.566130000000     0.239480000000     0.0372863  
H105     H      0.793280000000     0.507290000000     0.395810000000     0.0336312  
H106     H      0.892390000000     0.578560000000     0.294990000000     0.0316421  
H107     H      0.292710000000     0.541750000000     0.149230000000     0.025604   
H108     H      0.393430000000     0.543710000000     0.249330000000     0.0309602  
H109     H      0.338670000000     0.501640000000     0.342360000000     0.0397617  
H110     H      0.201230000000     0.497080000000     0.204610000000     0.0359324  
H111     H      0.141590000000     0.524720000000     0.297920000000     0.0231878  
H112     H      0.244720000000     0.459470000000     0.399000000000     0.0332423  
H113     H      0.297780000000     0.471950000000     0.145180000000     0.0277273  
H114     H      0.398510000000     0.473890000000     0.245720000000     0.03582    
H115     H      0.243230000000     0.529500000000     0.400530000000     0.0354285  
H116     H      0.146810000000     0.454890000000     0.299640000000     0.0303641  
H117     H      0.238330000000     0.466810000000     0.643160000000     0.0360531  
H118     H      0.138350000000     0.466890000000     0.743300000000     0.0383961  
H119     H      0.197890000000     0.496600000000     0.840250000000     0.0398351  
H120     H      0.335140000000     0.496480000000     0.702480000000     0.0388665  
H121     H      0.392360000000     0.457630000000     0.797760000000     0.0287242  
H122     H      0.292550000000     0.527720000000     0.898790000000     0.0297834  
H123     H      0.242260000000     0.536660000000     0.646150000000     0.0364648  
H124     H      0.141340000000     0.536720000000     0.747160000000     0.0395903  
H125     H      0.293670000000     0.457720000000     0.897400000000     0.0282776  
H126     H      0.393890000000     0.527600000000     0.796550000000     0.0300277  
H127     H      0.741230000000     0.544630000000     0.894750000000     0.0380758  
H128     H      0.639800000000     0.541680000000     0.793310000000     0.0311005  
H129     H      0.699150000000     0.510910000000     0.698790000000     0.0387083  
H130     H      0.836270000000     0.515740000000     0.836890000000     0.042632   
H131     H      0.891660000000     0.556000000000     0.742740000000     0.0387159  
H132     H      0.795520000000     0.481840000000     0.640880000000     0.036665   
H133     H      0.742750000000     0.474540000000     0.893370000000     0.0365414  
H134     H      0.643110000000     0.471650000000     0.793860000000     0.0292492  
H135     H      0.792520000000     0.551870000000     0.642200000000     0.032771   
H136     H      0.896020000000     0.486020000000     0.742640000000     0.0409764  
H137     H      0.740450000000     0.642540000000     0.056420000000     0.038453   
H138     H      0.640200000000     0.742130000000     0.058760000000     0.0382422  
H139     H      0.696990000000     0.837610000000     0.020800000000     0.0400663  
H140     H      0.834500000000     0.700230000000     0.018180000000     0.0402393  
H141     H      0.893420000000     0.794940000000     0.050670000000     0.0359879  
H142     H      0.791680000000     0.895150000000     0.982110000000     0.0438732  
H143     H      0.739230000000     0.641900000000     0.986360000000     0.0452344  
H144     H      0.637820000000     0.742480000000     0.988730000000     0.0431115  
H145     H      0.792690000000     0.896210000000     0.052160000000     0.0359907  
H146     H      0.891420000000     0.795030000000     0.980620000000     0.0436451  
H147     H      0.641170000000     0.295800000000     0.045020000000     0.0321368  
H148     H      0.743370000000     0.397480000000     0.043220000000     0.0381437  
H149     H      0.838310000000     0.337320000000     0.018280000000     0.0393296  
H150     H      0.700090000000     0.200330000000     0.021490000000     0.037497   
H151     H      0.793360000000     0.146240000000     0.067060000000     0.0341638  
H152     H      0.897050000000     0.241360000000     0.994200000000     0.0377608  
H153     H      0.645750000000     0.292950000000     0.975020000000     0.0349663  
H154     H      0.744920000000     0.391770000000     0.973270000000     0.0406734  
H155     H      0.892950000000     0.244570000000     0.064210000000     0.0305017  
H156     H      0.794540000000     0.139990000000     0.997140000000     0.0396671  
H157     H      0.142150000000     0.791980000000     0.072970000000     0.0328977  
H158     H      0.240870000000     0.891080000000     0.069070000000     0.0305588  
H159     H      0.334280000000     0.835390000000     0.025350000000     0.0386808  
H160     H      0.197650000000     0.696910000000     0.031360000000     0.0373594  
H161     H      0.294900000000     0.638780000000     0.056840000000     0.0277561  
H162     H      0.388510000000     0.742490000000     0.982020000000     0.040655   
H163     H      0.137690000000     0.790670000000     0.002920000000     0.0318148  
H164     H      0.239410000000     0.892850000000     0.998900000000     0.0376835  
H165     H      0.395080000000     0.740900000000     0.051890000000     0.032958   
H166     H      0.289830000000     0.641760000000     0.986890000000     0.0339576  
H167     H      0.139810000000     0.238720000000     0.999060000000     0.0363282  
H168     H      0.241400000000     0.136500000000     0.998210000000     0.0364093  
H169     H      0.338010000000     0.197050000000     0.019270000000     0.0365806  
H170     H      0.200680000000     0.334590000000     0.020370000000     0.0361809  
H171     H      0.293020000000     0.388800000000     0.971800000000     0.032848   
H172     H      0.398880000000     0.293250000000     0.040700000000     0.0311352  
H173     H      0.146770000000     0.242110000000     0.068700000000     0.0293495  
H174     H      0.245440000000     0.142830000000     0.067870000000     0.0295774  
H175     H      0.392070000000     0.290030000000     0.971030000000     0.0341194  
H176     H      0.296750000000     0.395070000000     0.041490000000     0.0297234  
H177     H      0.794280000000     0.976460000000     0.896530000000     0.0443121  
H178     H      0.893430000000     0.977940000000     0.796510000000     0.0444182  
H179     H      0.836850000000     0.019560000000     0.703030000000     0.039459   
H180     H      0.699720000000     0.017750000000     0.841110000000     0.040491   
H181     H      0.640450000000     0.989660000000     0.745630000000     0.044295   
H182     H      0.742710000000     0.060830000000     0.647650000000     0.0314963  
H183     H      0.794960000000     0.046450000000     0.900120000000     0.0387394  
H184     H      0.895930000000     0.047960000000     0.798190000000     0.0408802  
H185     H      0.741560000000     0.990850000000     0.644020000000     0.0389548  
H186     H      0.643290000000     0.059660000000     0.747590000000     0.0370855  
H187     H      0.294540000000     0.044620000000     0.639620000000     0.0377981  
H188     H      0.395630000000     0.046200000000     0.741520000000     0.0399518  
H189     H      0.336960000000     0.016580000000     0.836460000000     0.0391614  
H190     H      0.199670000000     0.015040000000     0.698520000000     0.0395662  
H191     H      0.143310000000     0.056260000000     0.792190000000     0.0363986  
H192     H      0.241620000000     0.986970000000     0.895390000000     0.0393028  
H193     H      0.294540000000     0.974600000000     0.642690000000     0.0432446  
H194     H      0.393750000000     0.976150000000     0.742550000000     0.0434772  
H195     H      0.242940000000     0.056970000000     0.892240000000     0.0316758  
H196     H      0.140560000000     0.986260000000     0.794030000000     0.043509   
H197     H      0.241580000000     0.006680000000     0.140230000000     0.0276565  
H198     H      0.139380000000     0.006080000000     0.242200000000     0.0267801  
H199     H      0.197610000000     0.035450000000     0.336640000000     0.0373566  
H200     H      0.335700000000     0.035240000000     0.199550000000     0.0361513  
H201     H      0.390550000000     0.992460000000     0.292640000000     0.0331863  
H202     H      0.293990000000     0.063220000000     0.396470000000     0.0366185  
H203     H      0.240670000000     0.076690000000     0.142960000000     0.0276547  
H204     H      0.141720000000     0.076080000000     0.241690000000     0.0265301  
H205     H      0.289580000000     0.993390000000     0.392700000000     0.0378764  
H206     H      0.395100000000     0.062280000000     0.296520000000     0.0296957  
H207     H      0.794170000000     0.066020000000     0.143490000000     0.0364163  
H208     H      0.895010000000     0.061920000000     0.243470000000     0.0309758  
H209     H      0.835480000000     0.032850000000     0.339720000000     0.0371195  
H210     H      0.697380000000     0.038390000000     0.202740000000     0.0373382  
H211     H      0.642150000000     0.077850000000     0.298630000000     0.027025   
H212     H      0.740740000000     0.003990000000     0.398270000000     0.0281169  
H213     H      0.788990000000     0.996180000000     0.145710000000     0.0380961  
H214     H      0.889980000000     0.992070000000     0.245830000000     0.0341029  
H215     H      0.741810000000     0.073990000000     0.397250000000     0.0283028  
H216     H      0.638620000000     0.007900000000     0.296910000000     0.0271406  
H217     H      0.066610000000     0.394150000000     0.740710000000     0.039564   
H218     H      0.066430000000     0.295190000000     0.640300000000     0.0371655  
H219     H      0.032400000000     0.198630000000     0.698180000000     0.0398555  
H220     H      0.033030000000     0.335540000000     0.836470000000     0.0394031  
H221     H      0.067280000000     0.239440000000     0.894080000000     0.0316643  
H222     H      0.996580000000     0.141290000000     0.791670000000     0.0417609  
H223     H      0.996580000000     0.392860000000     0.743740000000     0.0455428  
H224     H      0.996400000000     0.292310000000     0.641650000000     0.0423249  
H225     H      0.066630000000     0.139910000000     0.794020000000     0.0363746  
H226     H      0.997230000000     0.242240000000     0.893180000000     0.0376363  
H227     H      0.040650000000     0.791750000000     0.899400000000     0.0388849  
H228     H      0.046010000000     0.892270000000     0.797830000000     0.0408688  
H229     H      0.013000000000     0.834970000000     0.702820000000     0.0406055  
H230     H      0.005330000000     0.697950000000     0.840630000000     0.0408181  
H231     H      0.042860000000     0.639240000000     0.747520000000     0.0409411  
H232     H      0.978800000000     0.740180000000     0.643500000000     0.039528   
H233     H      0.970700000000     0.794750000000     0.897470000000     0.0433967  
H234     H      0.976000000000     0.894020000000     0.797100000000     0.0440742  
H235     H      0.048760000000     0.739840000000     0.646700000000     0.0381672  
H236     H      0.972930000000     0.640190000000     0.743780000000     0.0438832  
H237     H      0.050600000000     0.890380000000     0.247750000000     0.0300768  
H238     H      0.049770000000     0.789790000000     0.148940000000     0.0349944  
H239     H      0.001500000000     0.698890000000     0.203460000000     0.0376327  
H240     H      0.004270000000     0.837090000000     0.340430000000     0.0389672  
H241     H      0.027880000000     0.742000000000     0.400320000000     0.02944    
H242     H      0.954890000000     0.646030000000     0.297830000000     0.0301106  
H243     H      0.980930000000     0.896870000000     0.243270000000     0.0338748  
H244     H      0.980120000000     0.794830000000     0.142670000000     0.0371949  
H245     H      0.024650000000     0.639210000000     0.297670000000     0.0198277  
H246     H      0.957950000000     0.744000000000     0.395960000000     0.0324484  
H247     H      0.013350000000     0.394550000000     0.293720000000     0.0234011  
H248     H      0.004730000000     0.292970000000     0.394260000000     0.0335601  
H249     H      0.038440000000     0.197870000000     0.337400000000     0.0373752  
H250     H      0.049740000000     0.335860000000     0.200830000000     0.0362543  
H251     H      0.012370000000     0.243820000000     0.141160000000     0.0279888  
H252     H      0.074110000000     0.138960000000     0.242540000000     0.0274081  
H253     H      0.083100000000     0.391560000000     0.298420000000     0.0312486  
H254     H      0.074640000000     0.291730000000     0.397490000000     0.0336289  
H255     H      0.004210000000     0.142380000000     0.242070000000     0.0268259  
H256     H      0.082180000000     0.238590000000     0.143280000000     0.0278446  
N1       N      0.537450000000     0.174860000000     0.365310000000    -0.237749   
N2       N      0.512450000000     0.360640000000     0.179480000000    -0.225056   
N3       N      0.525070000000     0.673980000000     0.174560000000    -0.207677   
N4       N      0.523700000000     0.859800000000     0.361500000000    -0.225236   
N5       N      0.508230000000     0.861860000000     0.674630000000    -0.200544   
N6       N      0.501950000000     0.675310000000     0.861390000000    -0.22423    
N7       N      0.495850000000     0.360890000000     0.865090000000    -0.236396   
N8       N      0.522640000000     0.175020000000     0.679800000000    -0.216921   
N9       N      0.672720000000     0.173230000000     0.497590000000    -0.236225   
N10      N      0.859200000000     0.358740000000     0.504040000000    -0.21298    
N11      N      0.862960000000     0.672340000000     0.499490000000    -0.207441   
N12      N      0.675550000000     0.859140000000     0.506480000000    -0.221977   
N13      N      0.172180000000     0.363290000000     0.500600000000    -0.204397   
N14      N      0.358680000000     0.175760000000     0.506900000000    -0.223246   
N15      N      0.176580000000     0.676230000000     0.511470000000    -0.21324    
N16      N      0.362190000000     0.862280000000     0.524340000000    -0.208614   
N17      N      0.860770000000     0.542110000000     0.362190000000    -0.216029   
N18      N      0.674530000000     0.528760000000     0.174300000000    -0.199505   
N19      N      0.176790000000     0.493320000000     0.366310000000    -0.218424   
N20      N      0.362410000000     0.509890000000     0.180400000000    -0.22663    
N21      N      0.360440000000     0.494130000000     0.864810000000    -0.235761   
N22      N      0.172960000000     0.504020000000     0.677820000000    -0.196754   
N23      N      0.860980000000     0.519230000000     0.675280000000    -0.203872   
N24      N      0.674790000000     0.508560000000     0.860780000000    -0.218657   
N25      N      0.859570000000     0.862500000000     0.016540000000    -0.202625   
N26      N      0.672280000000     0.674990000000     0.022400000000    -0.196892   
N27      N      0.861300000000     0.176010000000     0.030640000000    -0.225884   
N28      N      0.676910000000     0.361460000000     0.009120000000    -0.218696   
N29      N      0.359090000000     0.674290000000     0.018290000000    -0.226556   
N30      N      0.173080000000     0.858480000000     0.034890000000    -0.227122   
N31      N      0.362490000000     0.359150000000     0.005560000000    -0.234099   
N32      N      0.175960000000     0.172760000000     0.034340000000    -0.230381   
N33      N      0.674950000000     0.025410000000     0.679220000000    -0.214855   
N34      N      0.861760000000     0.012300000000     0.864810000000    -0.199663   
N35      N      0.175080000000     0.021900000000     0.860460000000    -0.215489   
N36      N      0.361690000000     0.010840000000     0.674610000000    -0.200153   
N37      N      0.359160000000     0.025800000000     0.361670000000    -0.223386   
N38      N      0.173710000000     0.039940000000     0.174590000000    -0.238832   
N39      N      0.673740000000     0.039940000000     0.364990000000    -0.237442   
N40      N      0.858880000000     0.027140000000     0.177540000000    -0.223391   
N41      N      0.030130000000     0.173770000000     0.860140000000    -0.216268   
N42      N      0.029460000000     0.360670000000     0.674800000000    -0.198031   
N43      N      0.011880000000     0.672680000000     0.678250000000    -0.198691   
N44      N      0.009350000000     0.860410000000     0.865070000000    -0.197119   
N45      N      0.992460000000     0.675550000000     0.365190000000    -0.221271   
N46      N      0.017120000000     0.859760000000     0.178530000000    -0.224072   
N47      N      0.041520000000     0.173890000000     0.174940000000    -0.236355   
N48      N      0.042670000000     0.359930000000     0.363280000000    -0.214904   
O1       O      0.032960000000     0.152090000000     0.088130000000    -1.04759    
O2       O      0.018870000000     0.880540000000     0.091360000000    -0.786273   
O3       O      0.945710000000     0.021270000000     0.155070000000    -1.01067    
O4       O      0.087450000000     0.029600000000     0.153070000000    -1.07621    
O5       O      0.152040000000     0.030620000000     0.088210000000    -1.06472    
O6       O      0.880200000000     0.023690000000     0.090450000000    -0.78896    
O7       O      0.017700000000     0.946550000000     0.155540000000    -1.01381    
O8       O      0.029790000000     0.087810000000     0.153190000000    -1.06986    
O9       O      0.073320000000     0.967630000000     0.075950000000    -2.07515    
O10      O      0.968550000000     0.074660000000     0.075190000000    -2.08127    
O11      O      0.960910000000     0.962450000000     0.079200000000    -0.865476   
O12      O      0.028970000000     0.028690000000     0.030450000000    -2.56832    
O13      O      0.012490000000     0.883030000000     0.952400000000    -0.702284   
O14      O      0.024630000000     0.152240000000     0.947140000000    -0.933887   
O15      O      0.882100000000     0.949810000000     0.019280000000    -0.727482   
O16      O      0.152070000000     0.945050000000     0.027360000000    -0.963307   
O17      O      0.153050000000     0.085920000000     0.029430000000    -1.03656    
O18      O      0.882360000000     0.089160000000     0.027680000000    -0.777073   
O19      O      0.948910000000     0.016270000000     0.885820000000    -0.590849   
O20      O      0.088180000000     0.020060000000     0.882420000000    -0.631742   
O21      O      0.883840000000     0.014780000000     0.951900000000    -0.71652    
O22      O      0.153010000000     0.019950000000     0.947600000000    -0.933831   
O23      O      0.947110000000     0.883550000000     0.019180000000    -0.725533   
O24      O      0.947880000000     0.153600000000     0.025270000000    -0.956416   
O25      O      0.088870000000     0.151280000000     0.029760000000    -1.03989    
O26      O      0.086440000000     0.880740000000     0.029820000000    -0.771305   
O27      O      0.015590000000     0.947680000000     0.886000000000    -0.583493   
O28      O      0.023910000000     0.087090000000     0.882240000000    -0.629756   
O29      O      0.073610000000     0.071860000000     0.969750000000    -1.99209    
O30      O      0.969860000000     0.970460000000     0.972350000000    -1.58761    
O31      O      0.961380000000     0.071820000000     0.963210000000    -1.23323    
O32      O      0.071110000000     0.959460000000     0.963920000000    -1.23141    
O33      O      0.029250000000     0.382170000000     0.449200000000    -0.781169   
O34      O      0.004500000000     0.653100000000     0.450960000000    -0.852604   
O35      O      0.947320000000     0.533660000000     0.384330000000    -0.943304   
O36      O      0.090220000000     0.501410000000     0.386490000000    -0.942888   
O37      O      0.153740000000     0.506370000000     0.451740000000    -0.803344   
O38      O      0.882670000000     0.531020000000     0.448540000000    -0.849079   
O39      O      0.001910000000     0.589240000000     0.385920000000    -0.971432   
O40      O      0.035280000000     0.446600000000     0.385020000000    -0.926596   
O41      O      0.073150000000     0.572770000000     0.458580000000    -1.68291    
O42      O      0.963220000000     0.462880000000     0.456840000000    -1.68879    
O43      O      0.007910000000     0.527330000000     0.505760000000    -2.24347    
O44      O      0.027750000000     0.507600000000     0.505400000000     0.169278   
O45      O      0.017800000000     0.650560000000     0.591020000000    -0.74268    
O46      O      0.022670000000     0.383280000000     0.588050000000    -0.702164   
O47      O      0.884840000000     0.585560000000     0.505550000000    -0.811185   
O48      O      0.154420000000     0.589410000000     0.512720000000    -0.77345    
O49      O      0.150370000000     0.449980000000     0.508190000000    -0.748963   
O50      O      0.881490000000     0.445090000000     0.512270000000    -0.821113   
O51      O      0.947990000000     0.519110000000     0.654500000000    -0.603573   
O52      O      0.086000000000     0.511520000000     0.655690000000    -0.589748   
O53      O      0.883780000000     0.515760000000     0.588500000000    -0.764867   
O54      O      0.151130000000     0.511620000000     0.590560000000    -0.703096   
O55      O      0.949650000000     0.650450000000     0.507160000000    -0.793176   
O56      O      0.945950000000     0.380820000000     0.509160000000    -0.758333   
O57      O      0.085390000000     0.385120000000     0.506400000000    -0.741897   
O58      O      0.090000000000     0.653730000000     0.515980000000    -0.810009   
O59      O      0.013700000000     0.585510000000     0.656050000000    -0.597496   
O60      O      0.022110000000     0.447490000000     0.654150000000    -0.598008   
O61      O      0.069830000000     0.464680000000     0.566400000000    -1.517      
O62      O      0.964500000000     0.569750000000     0.566910000000    -1.53029    
O63      O      0.957690000000     0.462370000000     0.575320000000    -1.2356     
O64      O      0.071930000000     0.576770000000     0.577290000000    -1.22794    
O65      O      0.652140000000     0.030660000000     0.451420000000    -1.03965    
O66      O      0.380320000000     0.022410000000     0.448800000000    -0.78781    
O67      O      0.519510000000     0.946660000000     0.384260000000    -1.0081     
O68      O      0.529480000000     0.088300000000     0.386780000000    -1.06613    
O69      O      0.529890000000     0.152770000000     0.451780000000    -1.06003    
O70      O      0.521920000000     0.880880000000     0.448630000000    -0.799913   
O71      O      0.446020000000     0.020600000000     0.384340000000    -1.01034    
O72      O      0.587430000000     0.030700000000     0.386660000000    -1.07072    
O73      O      0.467980000000     0.074540000000     0.464170000000    -2.09793    
O74      O      0.574060000000     0.968430000000     0.463940000000    -2.08213    
O75      O      0.461700000000     0.962150000000     0.460510000000    -0.870414   
O76      O      0.528690000000     0.029140000000     0.509340000000    -2.57079    
O77      O      0.383770000000     0.014070000000     0.587520000000    -0.714913   
O78      O      0.652930000000     0.022890000000     0.592090000000    -0.930259   
O79      O      0.449150000000     0.883700000000     0.520650000000    -0.75206    
O80      O      0.445690000000     0.153720000000     0.514070000000    -0.950663   
O81      O      0.586550000000     0.151860000000     0.508030000000    -1.0641     
O82      O      0.588430000000     0.881380000000     0.511010000000    -0.772159   
O83      O      0.515340000000     0.948900000000     0.653680000000    -0.583248   
O84      O      0.521560000000     0.088110000000     0.657500000000    -0.628322   
O85      O      0.513400000000     0.883970000000     0.587480000000    -0.721128   
O86      O      0.521750000000     0.153160000000     0.592550000000    -0.944749   
O87      O      0.383430000000     0.949340000000     0.520980000000    -0.736631   
O88      O      0.653450000000     0.946180000000     0.513780000000    -0.930112   
O89      O      0.651360000000     0.087030000000     0.507580000000    -1.04389    
O90      O      0.380940000000     0.088650000000     0.511200000000    -0.760899   
O91      O      0.448760000000     0.016010000000     0.653670000000    -0.589167   
O92      O      0.588050000000     0.022250000000     0.657220000000    -0.629327   
O93      O      0.572980000000     0.073360000000     0.569800000000    -1.98681    
O94      O      0.470550000000     0.970760000000     0.567110000000    -1.60164    
O95      O      0.571650000000     0.960670000000     0.576150000000    -1.25332    
O96      O      0.460360000000     0.071830000000     0.576270000000    -1.2448     
O97      O      0.449360000000     0.381880000000     0.010090000000    -1.04894    
O98      O      0.446040000000     0.653830000000     0.016460000000    -0.79307    
O99      O      0.383640000000     0.514490000000     0.093280000000    -1.01196    
O100     O      0.383190000000     0.503980000000     0.951290000000    -1.06029    
O101     O      0.447140000000     0.503510000000     0.885810000000    -1.06242    
O102     O      0.449060000000     0.513550000000     0.158090000000    -0.799611   
O103     O      0.382020000000     0.587740000000     0.020060000000    -1.02128    
O104     O      0.384250000000     0.446100000000     0.010950000000    -1.06515    
O105     O      0.460640000000     0.566350000000     0.963750000000    -2.09234    
O106     O      0.463050000000     0.460960000000     0.070640000000    -2.1016     
O107     O      0.459030000000     0.573120000000     0.076120000000    -0.869611   
O108     O      0.506790000000     0.506080000000     0.008580000000    -2.58611    
O109     O      0.584930000000     0.652110000000     0.021180000000    -0.702992   
O110     O      0.590110000000     0.382910000000     0.013400000000    -0.952147   
O111     O      0.520610000000     0.586870000000     0.153600000000    -0.746503   
O112     O      0.509150000000     0.588410000000     0.883540000000    -0.961181   
O113     O      0.504280000000     0.447440000000     0.886130000000    -1.06996    
O114     O      0.512710000000     0.447600000000     0.156830000000    -0.775375   
O115     O      0.652660000000     0.521110000000     0.087090000000    -0.58034    
O116     O      0.653720000000     0.513240000000     0.947590000000    -0.6272     
O117     O      0.587330000000     0.522950000000     0.152860000000    -0.718613   
O118     O      0.587870000000     0.511730000000     0.883380000000    -0.950354   
O119     O      0.519390000000     0.652190000000     0.087540000000    -0.735053   
O120     O      0.514850000000     0.382260000000     0.092250000000    -0.954239   
O121     O      0.504940000000     0.383060000000     0.951400000000    -1.06116    
O122     O      0.507200000000     0.653440000000     0.948430000000    -0.761267   
O123     O      0.651340000000     0.587530000000     0.018610000000    -0.582109   
O124     O      0.654960000000     0.448100000000     0.013240000000    -0.630917   
O125     O      0.566800000000     0.462300000000     0.963950000000    -2.00226    
O126     O      0.565530000000     0.565270000000     0.066000000000    -1.6066     
O127     O      0.575200000000     0.464150000000     0.076260000000    -1.24202    
O128     O      0.572780000000     0.574630000000     0.964380000000    -1.23312    
Tb1      Tb     0.016830000000     0.017350000000     0.107740000000     6.36212    
Tb2      Tb     0.018260000000     0.930540000000     0.023590000000     4.27625    
Tb3      Tb     0.017970000000     0.105750000000     0.018460000000     6.24363    
Tb4      Tb     0.930740000000     0.020030000000     0.023070000000     4.31643    
Tb5      Tb     0.105870000000     0.015830000000     0.018870000000     6.27834    
Tb6      Tb     0.020050000000     0.019140000000     0.932500000000     3.16601    
Tb7      Tb     0.018480000000     0.517860000000     0.428380000000     5.39526    
Tb8      Tb     0.020610000000     0.604940000000     0.518170000000     4.45644    
Tb9      Tb     0.014240000000     0.430360000000     0.517060000000     4.18094    
Tb10     Tb     0.930150000000     0.514480000000     0.516550000000     4.5677     
Tb11     Tb     0.104850000000     0.521030000000     0.518720000000     4.2876     
Tb12     Tb     0.017090000000     0.516970000000     0.606100000000     3.07736    
Tb13     Tb     0.517000000000     0.017590000000     0.431980000000     6.33585    
Tb14     Tb     0.430700000000     0.019810000000     0.516360000000     4.30362    
Tb15     Tb     0.605830000000     0.017000000000     0.520990000000     6.17765    
Tb16     Tb     0.519520000000     0.931050000000     0.516270000000     4.40454    
Tb17     Tb     0.516550000000     0.106240000000     0.521210000000     6.35115    
Tb18     Tb     0.519880000000     0.020100000000     0.607120000000     3.15055    
Tb19     Tb     0.429740000000     0.517220000000     0.021440000000     6.33367    
Tb20     Tb     0.513790000000     0.604260000000     0.017390000000     4.2861     
Tb21     Tb     0.519110000000     0.429240000000     0.021020000000     6.31989    
Tb22     Tb     0.515670000000     0.516110000000     0.106700000000     4.38551    
Tb23     Tb     0.517320000000     0.517900000000     0.931250000000     6.40285    
Tb24     Tb     0.604850000000     0.515930000000     0.016270000000     3.134      


