data_structure

_audit_creation_method RASPA-1.0
_audit_creation_date 2023-5-19
_audit_author_name 'Poobodin Mano'

_cell_length_a    26.0414
_cell_length_b    26.1674
_cell_length_c    26.279
_cell_angle_alpha 90
_cell_angle_beta  90
_cell_angle_gamma 90
_cell_volume      17907.4

_symmetry_cell_setting          triclinic
_symmetry_space_group_name_Hall 'P 1'
_symmetry_space_group_name_H-M  'P 1'
_symmetry_Int_Tables_number     1

_symmetry_equiv_pos_as_xyz 'x,y,z'

loop_
_atom_site_label
_atom_site_type_symbol
_atom_site_fract_x
_atom_site_fract_y
_atom_site_fract_z
_atom_site_charge
C1       C      0.022410000000     0.131020000000     0.131270000000     0.723511   
C2       C      0.032120000000     0.893490000000     0.130290000000     0.67526    
C3       C      0.895090000000     0.004230000000     0.129440000000     0.663089   
C4       C      0.131450000000     0.040440000000     0.132340000000     0.719332   
C5       C      0.026250000000     0.899220000000     0.896040000000     0.564754   
C6       C      0.014320000000     0.134010000000     0.894980000000     0.638463   
C7       C      0.908200000000     0.889850000000     0.005050000000     0.57542    
C8       C      0.144840000000     0.902920000000     0.028130000000     0.680394   
C9       C      0.128520000000     0.139320000000     0.030940000000     0.698754   
C10      C      0.891280000000     0.124530000000     0.028280000000     0.687855   
C11      C      0.904260000000     0.002400000000     0.894970000000     0.559953   
C12      C      0.139440000000     0.032240000000     0.896540000000     0.636589   
C13      C      0.027810000000     0.396760000000     0.399570000000     0.723515   
C14      C      0.005430000000     0.634800000000     0.393930000000     0.664171   
C15      C      0.890120000000     0.502610000000     0.400650000000     0.678441   
C16      C      0.127090000000     0.501180000000     0.391510000000     0.722114   
C17      C      0.013080000000     0.634810000000     0.627980000000     0.565983   
C18      C      0.031960000000     0.400370000000     0.634540000000     0.64934    
C19      C      0.896320000000     0.632050000000     0.522310000000     0.586299   
C20      C      0.132340000000     0.637620000000     0.495490000000     0.681895   
C21      C      0.133390000000     0.401420000000     0.492580000000     0.715281   
C22      C      0.895420000000     0.396720000000     0.517490000000     0.686247   
C23      C      0.903040000000     0.523770000000     0.634300000000     0.568805   
C24      C      0.139770000000     0.507650000000     0.626540000000     0.650765   
C25      C      0.629820000000     0.031850000000     0.392150000000     0.710807   
C26      C      0.391470000000     0.018110000000     0.399120000000     0.6637     
C27      C      0.512650000000     0.896000000000     0.394520000000     0.665868   
C28      C      0.527200000000     0.134600000000     0.397280000000     0.720225   
C29      C      0.403950000000     0.009240000000     0.633380000000     0.567122   
C30      C      0.640460000000     0.023360000000     0.628710000000     0.630299   
C31      C      0.398760000000     0.899470000000     0.522020000000     0.587311   
C32      C      0.396150000000     0.135010000000     0.513360000000     0.680326   
C33      C      0.633970000000     0.132170000000     0.491670000000     0.704793   
C34      C      0.634850000000     0.896080000000     0.495880000000     0.681242   
C35      C      0.519060000000     0.898740000000     0.628500000000     0.575391   
C36      C      0.529980000000     0.134660000000     0.633060000000     0.638367   
C37      C      0.393910000000     0.400400000000     0.995700000000     0.719107   
C38      C      0.404620000000     0.637710000000     0.003850000000     0.669525   
C39      C      0.396060000000     0.518930000000     0.130890000000     0.669545   
C40      C      0.403020000000     0.502990000000     0.893800000000     0.743608   
C41      C      0.640580000000     0.622950000000     0.019620000000     0.558972   
C42      C      0.631400000000     0.387070000000     0.005360000000     0.63802    
C43      C      0.525590000000     0.629460000000     0.128940000000     0.584315   
C44      C      0.514730000000     0.630900000000     0.894070000000     0.691087   
C45      C      0.496870000000     0.395270000000     0.896590000000     0.709498   
C46      C      0.497920000000     0.394380000000     0.132560000000     0.679818   
C47      C      0.631740000000     0.513240000000     0.131670000000     0.570862   
C48      C      0.640090000000     0.496120000000     0.897280000000     0.649613   
C49      C      0.492280000000     0.334400000000     0.260220000000     0.000538686
C50      C      0.511210000000     0.313410000000     0.348220000000    -0.0372398  
C51      C      0.537640000000     0.225780000000     0.376030000000     0.0217663  
C52      C      0.520830000000     0.262400000000     0.335020000000    -0.00801887 
C53      C      0.545080000000     0.157400000000     0.307860000000     0.0185914  
C54      C      0.525830000000     0.196000000000     0.269840000000    -0.00624892 
C55      C      0.496840000000     0.348880000000     0.311360000000    -0.041914   
C56      C      0.515890000000     0.246940000000     0.283950000000     0.00348215 
C57      C      0.520200000000     0.181250000000     0.218870000000    -0.0385847  
C58      C      0.504920000000     0.216490000000     0.182130000000    -0.0404928  
C59      C      0.479360000000     0.304560000000     0.154380000000     0.0160397  
C60      C      0.495700000000     0.267590000000     0.195270000000    -0.00252952 
C61      C      0.476000000000     0.373900000000     0.221670000000     0.00783508 
C62      C      0.501020000000     0.283140000000     0.246300000000    -0.00117123 
C63      C      0.530250000000     0.757810000000     0.191240000000     0.000582595
C64      C      0.516310000000     0.846500000000     0.214680000000    -0.0378639  
C65      C      0.500770000000     0.874610000000     0.304320000000     0.0183028  
C66      C      0.511890000000     0.833060000000     0.266140000000    -0.00628502 
C67      C      0.502890000000     0.805390000000     0.373460000000     0.0105849  
C68      C      0.512800000000     0.767140000000     0.331870000000    -0.00382822 
C69      C      0.525820000000     0.809460000000     0.177810000000    -0.0422236  
C70      C      0.516770000000     0.781510000000     0.280470000000     0.00238976 
C71      C      0.517530000000     0.715540000000     0.345340000000    -0.0394379  
C72      C      0.526450000000     0.678460000000     0.308440000000    -0.0418224  
C73      C      0.540810000000     0.650350000000     0.218780000000     0.00509396 
C74      C      0.530510000000     0.691940000000     0.257010000000    -0.00036248 
C75      C      0.542690000000     0.719470000000     0.150240000000     0.00385126 
C76      C      0.525940000000     0.743530000000     0.242670000000    -0.00273309 
C77      C      0.520050000000     0.834810000000     0.756280000000     0.0042302  
C78      C      0.511490000000     0.810820000000     0.845000000000    -0.037141   
C79      C      0.499340000000     0.720670000000     0.873110000000     0.0132259  
C80      C      0.507710000000     0.759170000000     0.831560000000    -0.00423299 
C81      C      0.499870000000     0.651220000000     0.804340000000     0.0225987  
C82      C      0.506380000000     0.693260000000     0.765800000000    -0.0076741  
C83      C      0.518030000000     0.848100000000     0.807880000000    -0.0425329  
C84      C      0.510030000000     0.744960000000     0.780030000000     0.00452985 
C85      C      0.508160000000     0.680000000000     0.714190000000    -0.0366605  
C86      C      0.513840000000     0.717400000000     0.677000000000    -0.042646   
C87      C      0.523630000000     0.807640000000     0.648380000000     0.00572755 
C88      C      0.517710000000     0.769090000000     0.690390000000     0.00165938 
C89      C      0.529270000000     0.876640000000     0.718240000000    -0.000794613
C90      C      0.516050000000     0.783220000000     0.741960000000    -0.00351802 
C91      C      0.527780000000     0.196150000000     0.760580000000     0.00310026 
C92      C      0.505550000000     0.217480000000     0.847840000000    -0.0375458  
C93      C      0.477760000000     0.305440000000     0.874070000000     0.0179862  
C94      C      0.496660000000     0.268500000000     0.834170000000    -0.00666802 
C95      C      0.477710000000     0.374650000000     0.806730000000     0.0186978  
C96      C      0.495160000000     0.334930000000     0.768830000000    -0.0066548  
C97      C      0.521330000000     0.181890000000     0.811610000000    -0.0428308  
C98      C      0.503660000000     0.283770000000     0.783260000000     0.00310724 
C99      C      0.502080000000     0.349310000000     0.717910000000    -0.0386771  
C100     C      0.517620000000     0.313660000000     0.681650000000    -0.0413043  
C101     C      0.543360000000     0.225390000000     0.654700000000     0.0138968  
C102     C      0.526190000000     0.262540000000     0.695200000000    -0.00178015 
C103     C      0.546350000000     0.156680000000     0.722970000000     0.0010359  
C104     C      0.519410000000     0.247300000000     0.746150000000    -0.00241425 
C105     C      0.833980000000     0.268420000000     0.518190000000    -0.00359901 
C106     C      0.812620000000     0.179960000000     0.500480000000    -0.0387973  
C107     C      0.724630000000     0.152770000000     0.473550000000     0.019913   
C108     C      0.761540000000     0.193470000000     0.490630000000    -0.00673477 
C109     C      0.656060000000     0.220640000000     0.467000000000     0.016673   
C110     C      0.694970000000     0.259150000000     0.484950000000    -0.00530085 
C111     C      0.848320000000     0.216950000000     0.514440000000    -0.0402323  
C112     C      0.746170000000     0.244880000000     0.494920000000     0.00192716 
C113     C      0.680370000000     0.310450000000     0.489550000000    -0.0390114  
C114     C      0.716000000000     0.347380000000     0.503940000000    -0.0413364  
C115     C      0.804390000000     0.375210000000     0.528730000000     0.00977205 
C116     C      0.767250000000     0.334000000000     0.513400000000    -0.00133545 
C117     C      0.873840000000     0.306870000000     0.533980000000     0.0177375  
C118     C      0.782650000000     0.282640000000     0.509110000000    -0.000291161
C119     C      0.768240000000     0.693850000000     0.521500000000     0.00074869 
C120     C      0.680850000000     0.716820000000     0.498830000000    -0.0393559  
C121     C      0.655290000000     0.806260000000     0.475950000000     0.0100588  
C122     C      0.695320000000     0.767980000000     0.492160000000    -0.0022321  
C123     C      0.724800000000     0.874070000000     0.476530000000     0.0162273  
C124     C      0.762190000000     0.833600000000     0.493440000000    -0.00372972 
C125     C      0.716770000000     0.680300000000     0.513650000000    -0.0416201  
C126     C      0.746800000000     0.782430000000     0.500120000000     0.00196142 
C127     C      0.813560000000     0.847250000000     0.501690000000    -0.0379154  
C128     C      0.849340000000     0.810820000000     0.516920000000    -0.0418015  
C129     C      0.874500000000     0.721740000000     0.541040000000     0.00321005 
C130     C      0.834820000000     0.759690000000     0.523610000000     0.00152572 
C131     C      0.805530000000     0.653420000000     0.538940000000     0.00368797 
C132     C      0.783480000000     0.745120000000     0.515210000000    -0.00267082 
C133     C      0.261230000000     0.339890000000     0.492490000000    -0.00750446 
C134     C      0.348170000000     0.315510000000     0.514840000000    -0.0401351  
C135     C      0.374570000000     0.224840000000     0.528410000000     0.0189887  
C136     C      0.334050000000     0.263840000000     0.516020000000    -0.0044997  
C137     C      0.304810000000     0.156440000000     0.521360000000     0.00944103 
C138     C      0.267810000000     0.198250000000     0.507250000000    -0.000903353
C139     C      0.312300000000     0.353040000000     0.502900000000    -0.0389787  
C140     C      0.282910000000     0.249850000000     0.505840000000    -0.000165827
C141     C      0.216750000000     0.185150000000     0.496550000000    -0.0412508  
C142     C      0.180990000000     0.222640000000     0.484030000000    -0.038722   
C143     C      0.155820000000     0.313400000000     0.467370000000     0.017822   
C144     C      0.195240000000     0.274240000000     0.482640000000    -0.00620868 
C145     C      0.224510000000     0.381260000000     0.476540000000     0.0214454  
C146     C      0.246250000000     0.288210000000     0.493620000000     0.00236899 
C147     C      0.194440000000     0.765380000000     0.495790000000    -0.00126793 
C148     C      0.218000000000     0.852310000000     0.518270000000    -0.0413166  
C149     C      0.308230000000     0.877960000000     0.539320000000     0.00347129 
C150     C      0.269640000000     0.838060000000     0.523450000000     0.000759856
C151     C      0.376880000000     0.808910000000     0.536020000000     0.00382248 
C152     C      0.335680000000     0.771840000000     0.519860000000     0.000784975
C153     C      0.180960000000     0.816530000000     0.504270000000    -0.0393959  
C154     C      0.284050000000     0.786980000000     0.514710000000    -0.00241797 
C155     C      0.349260000000     0.720800000000     0.510870000000    -0.0420508  
C156     C      0.312310000000     0.685120000000     0.496580000000    -0.0382399  
C157     C      0.222110000000     0.659570000000     0.475530000000     0.0175977  
C158     C      0.260680000000     0.699360000000     0.491550000000    -0.00450866 
C159     C      0.153320000000     0.728230000000     0.479330000000     0.00810865 
C160     C      0.246180000000     0.750390000000     0.500520000000     0.00180823 
C161     C      0.690390000000     0.518470000000     0.260810000000     0.00210826 
C162     C      0.710390000000     0.505560000000     0.350160000000    -0.0388098  
C163     C      0.799200000000     0.485390000000     0.380940000000     0.00989557 
C164     C      0.762080000000     0.496690000000     0.338310000000    -0.00372475 
C165     C      0.868570000000     0.475030000000     0.313960000000     0.0201213  
C166     C      0.829730000000     0.489050000000     0.274200000000    -0.00674713 
C167     C      0.675050000000     0.516590000000     0.311920000000    -0.0419924  
C168     C      0.778150000000     0.498380000000     0.287100000000     0.00308087 
C169     C      0.845240000000     0.491410000000     0.223210000000    -0.0368953  
C170     C      0.810130000000     0.503360000000     0.185180000000    -0.0432782  
C171     C      0.722180000000     0.525770000000     0.154720000000    -0.00100157 
C172     C      0.758510000000     0.512380000000     0.197110000000     0.00446066 
C173     C      0.651370000000     0.532810000000     0.221100000000     0.00438783 
C174     C      0.742130000000     0.509840000000     0.248120000000    -0.00369499 
C175     C      0.253050000000     0.490490000000     0.327780000000    -0.00539616 
C176     C      0.343140000000     0.501830000000     0.307350000000    -0.0414647  
C177     C      0.373300000000     0.528380000000     0.221000000000     0.00909407 
C178     C      0.330680000000     0.514300000000     0.256960000000    -0.00160701 
C179     C      0.305770000000     0.537210000000     0.151000000000     0.0178841  
C180     C      0.265700000000     0.526270000000     0.190950000000    -0.00496538 
C181     C      0.304850000000     0.489350000000     0.342130000000    -0.0391603  
C182     C      0.278940000000     0.514870000000     0.241620000000    -0.000568077
C183     C      0.213810000000     0.527550000000     0.176800000000    -0.0405645  
C184     C      0.175360000000     0.517250000000     0.212200000000    -0.0386685  
C185     C      0.144770000000     0.494450000000     0.299650000000     0.0232314  
C186     C      0.187780000000     0.505290000000     0.262700000000    -0.00872331 
C187     C      0.213130000000     0.472530000000     0.364970000000     0.0164664  
C188     C      0.239710000000     0.503520000000     0.277570000000     0.00229985 
C189     C      0.269050000000     0.494620000000     0.686010000000    -0.00178375 
C190     C      0.357660000000     0.504720000000     0.712240000000    -0.0361254  
C191     C      0.384690000000     0.506290000000     0.803030000000     0.0292846  
C192     C      0.343200000000     0.502870000000     0.763600000000    -0.0134813  
C193     C      0.312510000000     0.505600000000     0.870520000000     0.0269293  
C194     C      0.275720000000     0.495870000000     0.827800000000    -0.0125438  
C195     C      0.321030000000     0.500730000000     0.673910000000    -0.0421801  
C196     C      0.291250000000     0.496900000000     0.776570000000     0.00705696 
C197     C      0.223910000000     0.488150000000     0.839910000000    -0.0353173  
C198     C      0.187690000000     0.481480000000     0.801700000000    -0.0433711  
C199     C      0.162620000000     0.474330000000     0.710390000000     0.00492694 
C200     C      0.202290000000     0.483630000000     0.750480000000     0.00290964 
C201     C      0.230790000000     0.489870000000     0.643250000000     0.0168125  
C202     C      0.254000000000     0.491680000000     0.737470000000    -0.0034684  
C203     C      0.776260000000     0.524360000000     0.697960000000     0.00324502 
C204     C      0.688280000000     0.503330000000     0.719990000000    -0.0377718  
C205     C      0.662170000000     0.477610000000     0.808020000000     0.0170793  
C206     C      0.702480000000     0.494760000000     0.770710000000    -0.00378717 
C207     C      0.730690000000     0.477910000000     0.876680000000     0.00321598 
C208     C      0.768960000000     0.493240000000     0.836390000000     0.000815622
C209     C      0.724600000000     0.518540000000     0.684200000000    -0.0424277  
C210     C      0.754070000000     0.501090000000     0.785450000000     0.00205402 
C211     C      0.820640000000     0.499130000000     0.850090000000    -0.0389734  
C212     C      0.857230000000     0.513030000000     0.813960000000    -0.0413354  
C213     C      0.884040000000     0.536460000000     0.725390000000    -0.00200003 
C214     C      0.843140000000     0.521240000000     0.763130000000     0.00459153 
C215     C      0.813800000000     0.543240000000     0.658750000000     0.00277995 
C216     C      0.791360000000     0.515700000000     0.748650000000    -0.00296354 
C217     C      0.781430000000     0.824420000000     0.000590000000    -0.00923622 
C218     C      0.692620000000     0.801490000000     0.016810000000    -0.0434146  
C219     C      0.665000000000     0.712130000000     0.036260000000     0.00261772 
C220     C      0.706190000000     0.749960000000     0.022260000000     0.00313602 
C221     C      0.732830000000     0.641800000000     0.030520000000    -0.00295886 
C222     C      0.771940000000     0.683550000000     0.020890000000     0.00447342 
C223     C      0.729610000000     0.838100000000     0.005340000000    -0.0366696  
C224     C      0.757810000000     0.735260000000     0.016630000000    -0.00495856 
C225     C      0.823880000000     0.670070000000     0.016290000000    -0.0439488  
C226     C      0.861360000000     0.707180000000     0.007370000000    -0.0364103  
C227     C      0.890200000000     0.797790000000     0.993450000000     0.0148496  
C228     C      0.848010000000     0.758880000000     0.002540000000    -0.00900913 
C229     C      0.819500000000     0.864650000000     0.984860000000     0.0168381  
C230     C      0.795980000000     0.773050000000     0.006480000000     0.00465084 
C231     C      0.761780000000     0.182270000000     0.031200000000    -0.000406404
C232     C      0.674510000000     0.205790000000     0.008630000000    -0.0361071  
C233     C      0.648790000000     0.295970000000     0.988830000000     0.0281666  
C234     C      0.689040000000     0.257080000000     0.003180000000    -0.0121121  
C235     C      0.719970000000     0.361820000000     0.984920000000     0.00971634 
C236     C      0.756400000000     0.322260000000     0.004880000000    -0.00510922 
C237     C      0.710450000000     0.168820000000     0.022420000000    -0.042923   
C238     C      0.740560000000     0.271270000000     0.011570000000     0.00390922 
C239     C      0.807400000000     0.336070000000     0.014800000000    -0.0390723  
C240     C      0.842520000000     0.299790000000     0.031610000000    -0.0399912  
C241     C      0.866140000000     0.210580000000     0.056600000000     0.0180384  
C242     C      0.827730000000     0.248670000000     0.037470000000    -0.00285717 
C243     C      0.799590000000     0.141150000000     0.046030000000     0.00878444 
C244     C      0.776840000000     0.233880000000     0.026940000000    -0.00133921 
C245     C      0.278970000000     0.702930000000     0.007530000000    -0.0150909  
C246     C      0.192900000000     0.726880000000     0.033380000000    -0.0437146  
C247     C      0.169980000000     0.816820000000     0.056360000000     0.00927569 
C248     C      0.208010000000     0.778060000000     0.037760000000     0.000370698
C249     C      0.236810000000     0.885630000000     0.043210000000     0.0160725  
C250     C      0.274360000000     0.843770000000     0.029740000000    -0.00362697 
C251     C      0.227800000000     0.689860000000     0.017700000000    -0.0353524  
C252     C      0.258950000000     0.792170000000     0.026710000000    -0.00216196 
C253     C      0.325600000000     0.856700000000     0.019820000000    -0.0385358  
C254     C      0.361160000000     0.819200000000     0.006550000000    -0.0445529  
C255     C      0.386040000000     0.728640000000     0.987890000000     0.0211505  
C256     C      0.346350000000     0.767830000000     0.002720000000    -0.00952902 
C257     C      0.314840000000     0.662330000000     0.988350000000     0.0314314  
C258     C      0.294960000000     0.754110000000     0.012180000000     0.0050901  
C259     C      0.254150000000     0.203930000000     0.029570000000    -0.012727   
C260     C      0.341780000000     0.224460000000     0.005460000000    -0.0621596  
C261     C      0.367630000000     0.311830000000     0.975540000000     0.00853444 
C262     C      0.328000000000     0.275420000000     0.996300000000     0.0174229  
C263     C      0.301580000000     0.382610000000     0.980750000000     0.0174639  
C264     C      0.262690000000     0.342410000000     0.996290000000     0.014388   
C265     C      0.305490000000     0.189360000000     0.022690000000    -0.0300738  
C266     C      0.276870000000     0.291040000000     0.004030000000    -0.0221264  
C267     C      0.211200000000     0.356730000000     0.002940000000    -0.060318   
C268     C      0.174240000000     0.320870000000     0.017430000000    -0.0302317  
C269     C      0.146260000000     0.231920000000     0.041320000000     0.0193057  
C270     C      0.187720000000     0.269670000000     0.025940000000    -0.0136229  
C271     C      0.216910000000     0.166460000000     0.052470000000     0.0184413  
C272     C      0.239380000000     0.254700000000     0.019930000000     0.0116573  
C273     C      0.844500000000     0.999420000000     0.765700000000     0.0274382  
C274     C      0.822210000000     0.015790000000     0.677360000000    -0.027076   
C275     C      0.732320000000     0.034390000000     0.648650000000     0.0164368  
C276     C      0.770390000000     0.022120000000     0.690350000000    -0.0120955  
C277     C      0.663770000000     0.040210000000     0.717710000000     0.00600295 
C278     C      0.703800000000     0.024210000000     0.755750000000    -0.00705213 
C279     C      0.858730000000     0.004500000000     0.714490000000    -0.0655918  
C280     C      0.755360000000     0.017150000000     0.741610000000     0.0127104  
C281     C      0.689350000000     0.018280000000     0.806800000000    -0.0324489  
C282     C      0.725470000000     0.005090000000     0.843560000000    -0.0551805  
C283     C      0.814790000000     0.983230000000     0.871240000000     0.00277822 
C284     C      0.777210000000     0.998600000000     0.830430000000     0.0226422  
C285     C      0.885390000000     0.986580000000     0.804370000000    -0.00492925 
C286     C      0.792570000000     0.004900000000     0.779450000000    -0.0264922  
C287     C      0.343410000000     0.011200000000     0.762000000000    -0.00750195 
C288     C      0.320400000000     0.032020000000     0.849180000000    -0.0413385  
C289     C      0.229990000000     0.050870000000     0.876120000000     0.0131601  
C290     C      0.268580000000     0.036890000000     0.835560000000    -0.000890752
C291     C      0.161500000000     0.050660000000     0.807260000000     0.0010059  
C292     C      0.202150000000     0.034370000000     0.769910000000     0.00345844 
C293     C      0.357270000000     0.019150000000     0.812940000000    -0.037492   
C294     C      0.253860000000     0.029040000000     0.784580000000    -0.00311256 
C295     C      0.188130000000     0.025840000000     0.719130000000    -0.0438624  
C296     C      0.224750000000     0.011670000000     0.683230000000    -0.0360602  
C297     C      0.314580000000     0.990120000000     0.657160000000     0.0227444  
C298     C      0.276510000000     0.006630000000     0.696970000000    -0.0103165  
C299     C      0.384550000000     0.996230000000     0.724360000000     0.0163051  
C300     C      0.291480000000     0.015490000000     0.747650000000     0.00500172 
C301     C      0.256050000000     0.047310000000     0.196610000000    -0.00656158 
C302     C      0.342930000000     0.024330000000     0.220410000000    -0.0417132  
C303     C      0.368120000000     0.004230000000     0.309880000000     0.0115209  
C304     C      0.328370000000     0.020190000000     0.271610000000    -0.003157   
C305     C      0.299380000000     0.012970000000     0.378830000000     0.000246003
C306     C      0.261960000000     0.026380000000     0.337020000000     0.000888916
C307     C      0.307390000000     0.038430000000     0.183460000000    -0.0394483  
C308     C      0.277170000000     0.029630000000     0.285710000000    -0.00263094 
C309     C      0.210490000000     0.035350000000     0.349960000000    -0.0435725  
C310     C      0.174420000000     0.047480000000     0.312660000000    -0.0381193  
C311     C      0.148420000000     0.063540000000     0.222080000000     0.0199504  
C312     C      0.188850000000     0.051000000000     0.261400000000    -0.00827965 
C313     C      0.219430000000     0.066320000000     0.156660000000     0.0179696  
C314     C      0.240510000000     0.042740000000     0.247730000000     0.00256603 
C315     C      0.689560000000     0.028010000000     0.263220000000    -0.00783712 
C316     C      0.713350000000     0.006460000000     0.176480000000    -0.0468331  
C317     C      0.804100000000     0.989570000000     0.149940000000     0.0207397  
C318     C      0.765210000000     0.002810000000     0.190360000000    -0.00856146 
C319     C      0.872480000000     0.991180000000     0.219410000000     0.0312576  
C320     C      0.831250000000     0.007230000000     0.256270000000    -0.0142262  
C321     C      0.676040000000     0.018950000000     0.212390000000    -0.0374062  
C322     C      0.779550000000     0.011470000000     0.241270000000     0.00371036 
C323     C      0.844810000000     0.016740000000     0.307030000000    -0.0362875  
C324     C      0.807810000000     0.031340000000     0.342430000000    -0.0422711  
C325     C      0.717830000000     0.055390000000     0.366240000000     0.0153288  
C326     C      0.756140000000     0.035630000000     0.328210000000    -0.00387021 
C327     C      0.647880000000     0.042550000000     0.300500000000     0.0203505  
C328     C      0.741540000000     0.025040000000     0.277780000000    -0.000232902
C329     C      0.009380000000     0.262390000000     0.833820000000    -0.0129965  
C330     C      0.021630000000     0.351690000000     0.812300000000    -0.0434807  
C331     C      0.046010000000     0.380480000000     0.724940000000     0.00393933 
C332     C      0.032320000000     0.338660000000     0.761700000000     0.00147433 
C333     C      0.056290000000     0.312380000000     0.656630000000     0.0164578  
C334     C      0.042370000000     0.273150000000     0.696100000000    -0.00374751 
C335     C      0.009980000000     0.314050000000     0.847840000000    -0.0351111  
C336     C      0.031510000000     0.287030000000     0.746730000000    -0.00150234 
C337     C      0.041310000000     0.221560000000     0.681950000000    -0.0395829  
C338     C      0.029170000000     0.183980000000     0.717380000000    -0.0422571  
C339     C      0.004900000000     0.155100000000     0.804660000000    -0.00310185 
C340     C      0.018470000000     0.197000000000     0.768000000000     3.57003e-05
C341     C      0.995570000000     0.223300000000     0.873470000000     0.033811   
C342     C      0.019610000000     0.248570000000     0.783060000000     0.00264591 
C343     C      0.024290000000     0.771320000000     0.831850000000     0.00400378 
C344     C      0.010530000000     0.682950000000     0.807490000000    -0.0352745  
C345     C      0.997220000000     0.655760000000     0.717470000000     0.0202082  
C346     C      0.007210000000     0.696910000000     0.756120000000    -0.010477   
C347     C      0.998280000000     0.725160000000     0.649060000000     0.0247692  
C348     C      0.008620000000     0.763280000000     0.690860000000    -0.0123048  
C349     C      0.019340000000     0.719610000000     0.844800000000    -0.0440786  
C350     C      0.012170000000     0.748540000000     0.742250000000     0.00745568 
C351     C      0.013490000000     0.815000000000     0.677920000000    -0.0345666  
C352     C      0.022100000000     0.851720000000     0.715310000000    -0.0451525  
C353     C      0.034970000000     0.879210000000     0.805390000000    -0.00220314 
C354     C      0.025650000000     0.837800000000     0.766710000000     0.00507971 
C355     C      0.036030000000     0.808850000000     0.873620000000     0.00170734 
C356     C      0.020840000000     0.786140000000     0.780520000000    -0.0060585  
C357     C      0.034670000000     0.833700000000     0.257370000000    -0.00382964 
C358     C      0.012910000000     0.812730000000     0.344580000000    -0.036924   
C359     C      0.988670000000     0.724440000000     0.371630000000     0.0234468  
C360     C      0.005170000000     0.761490000000     0.331160000000    -0.0121169  
C361     C      0.987830000000     0.654980000000     0.304160000000     0.0327661  
C362     C      0.004640000000     0.694570000000     0.266130000000    -0.0159143  
C363     C      0.027860000000     0.848330000000     0.308190000000    -0.0421383  
C364     C      0.012240000000     0.745910000000     0.280350000000     0.00634993 
C365     C      0.011950000000     0.679880000000     0.215360000000    -0.0350344  
C366     C      0.027070000000     0.715490000000     0.178970000000    -0.0439547  
C367     C      0.051520000000     0.803980000000     0.152070000000     0.00931678 
C368     C      0.034630000000     0.766760000000     0.192360000000    -0.00139664 
C369     C      0.052210000000     0.873070000000     0.219540000000     0.0170444  
C370     C      0.027340000000     0.782310000000     0.243170000000    -0.0032238  
C371     C      0.030940000000     0.258880000000     0.195990000000    -0.00718752 
C372     C      0.046920000000     0.346620000000     0.221610000000    -0.0397268  
C373     C      0.053710000000     0.373160000000     0.312760000000     0.0192656  
C374     C      0.043590000000     0.332940000000     0.273060000000    -0.00789894 
C375     C      0.034050000000     0.305400000000     0.380370000000     0.0252904  
C376     C      0.029680000000     0.267390000000     0.337640000000    -0.010553   
C377     C      0.040060000000     0.310190000000     0.183600000000    -0.0410361  
C378     C      0.033790000000     0.281800000000     0.286260000000     0.00220888 
C379     C      0.021300000000     0.216020000000     0.350090000000    -0.0389118  
C380     C      0.016590000000     0.179270000000     0.312140000000    -0.0410682  
C381     C      0.014850000000     0.151260000000     0.221620000000     0.0167983  
C382     C      0.019880000000     0.192930000000     0.260690000000    -0.00813219 
C383     C      0.020730000000     0.221860000000     0.153360000000     0.0141107  
C384     C      0.028080000000     0.244290000000     0.247360000000     0.000155857
H1       H      0.983530000000     0.974980000000     0.050760000000    -1.26051    
H2       H      0.046630000000     0.046470000000     0.044870000000    -1.04771    
H3       H      0.965960000000     0.098010000000     0.969230000000    -0.503978   
H4       H      0.109680000000     0.973920000000     0.969360000000    -0.496911   
H5       H      0.976280000000     0.551670000000     0.476390000000    -1.24551    
H6       H      0.044720000000     0.485750000000     0.482490000000    -1.06675    
H7       H      0.972380000000     0.430380000000     0.563410000000    -0.534939   
H8       H      0.103800000000     0.564980000000     0.554610000000    -0.517751   
H9       H      0.478620000000     0.980110000000     0.476240000000    -1.2555     
H10      H      0.546300000000     0.046700000000     0.481980000000    -1.02988    
H11      H      0.605720000000     0.968730000000     0.555260000000    -0.472012   
H12      H      0.472580000000     0.102320000000     0.561440000000    -0.522298   
H13      H      0.480070000000     0.550370000000     0.048210000000    -1.25869    
H14      H      0.485970000000     0.482590000000     0.982190000000    -1.06021    
H15      H      0.558230000000     0.423070000000     0.060730000000    -0.495995   
H16      H      0.567950000000     0.555640000000     0.927350000000    -0.550698   
H17      H      0.587450000000     0.155670000000     0.303740000000     0.0221888  
H18      H      0.494540000000     0.410950000000     0.231330000000     0.0417096  
H19      H      0.515680000000     0.233900000000     0.411450000000     0.0363137  
H20      H      0.437620000000     0.298970000000     0.147520000000     0.0272817  
H21      H      0.489470000000     0.387990000000     0.322770000000     0.0342238  
H22      H      0.515030000000     0.325890000000     0.387360000000     0.0316215  
H23      H      0.578360000000     0.234220000000     0.384660000000     0.0236461  
H24      H      0.433790000000     0.379340000000     0.224960000000     0.0317548  
H25      H      0.528020000000     0.142250000000     0.207380000000     0.0313096  
H26      H      0.530190000000     0.118820000000     0.297930000000     0.036567   
H27      H      0.500690000000     0.203900000000     0.143080000000     0.0321735  
H28      H      0.499120000000     0.294620000000     0.118180000000     0.0350369  
H29      H      0.528550000000     0.796450000000     0.406180000000     0.0407617  
H30      H      0.584060000000     0.723150000000     0.140570000000     0.032807   
H31      H      0.460110000000     0.886670000000     0.299580000000     0.0254309  
H32      H      0.517070000000     0.616390000000     0.228640000000     0.0405248  
H33      H      0.529720000000     0.821170000000     0.138450000000     0.0340743  
H34      H      0.512530000000     0.886040000000     0.203000000000     0.0324942  
H35      H      0.524350000000     0.908810000000     0.294840000000     0.0337791  
H36      H      0.520380000000     0.729420000000     0.115490000000     0.0403209  
H37      H      0.514360000000     0.703890000000     0.384800000000     0.0330098  
H38      H      0.463100000000     0.799650000000     0.387710000000     0.0290703  
H39      H      0.530240000000     0.638920000000     0.320100000000     0.0334629  
H40      H      0.581410000000     0.638290000000     0.223180000000     0.0322113  
H41      H      0.525800000000     0.618990000000     0.794070000000     0.0338934  
H42      H      0.569530000000     0.890200000000     0.722420000000     0.0399446  
H43      H      0.458920000000     0.724060000000     0.886020000000     0.0315503  
H44      H      0.493940000000     0.799950000000     0.618840000000     0.0405854  
H45      H      0.521520000000     0.887690000000     0.819490000000     0.0366121  
H46      H      0.509440000000     0.822340000000     0.884570000000     0.0344783  
H47      H      0.523570000000     0.731060000000     0.906450000000     0.040028   
H48      H      0.503850000000     0.909480000000     0.727870000000     0.0429738  
H49      H      0.505090000000     0.640360000000     0.702640000000     0.0318569  
H50      H      0.460180000000     0.635910000000     0.800970000000     0.0267413  
H51      H      0.515150000000     0.705960000000     0.637390000000     0.0343047  
H52      H      0.561130000000     0.800940000000     0.629220000000     0.0360014  
H53      H      0.435730000000     0.380210000000     0.801520000000     0.0246084  
H54      H      0.528060000000     0.119380000000     0.732140000000     0.0430211  
H55      H      0.494840000000     0.295520000000     0.911590000000     0.0378372  
H56      H      0.584820000000     0.232190000000     0.647250000000     0.0287454  
H57      H      0.528340000000     0.142850000000     0.823440000000     0.0348676  
H58      H      0.500120000000     0.205090000000     0.886810000000     0.0320264  
H59      H      0.435730000000     0.299690000000     0.877630000000     0.0239337  
H60      H      0.588430000000     0.152000000000     0.728140000000     0.0312799  
H61      H      0.495400000000     0.388440000000     0.706150000000     0.0317393  
H62      H      0.496050000000     0.411880000000     0.797390000000     0.0393705  
H63      H      0.522920000000     0.326030000000     0.642650000000     0.0326965  
H64      H      0.522970000000     0.234310000000     0.618560000000     0.0362327  
H65      H      0.655030000000     0.223220000000     0.424870000000     0.0228326  
H66      H      0.910710000000     0.297220000000     0.514820000000     0.0359024  
H67      H      0.733960000000     0.116110000000     0.492900000000     0.0373106  
H68      H      0.797430000000     0.384600000000     0.569400000000     0.0320202  
H69      H      0.887550000000     0.205390000000     0.522020000000     0.0335909  
H70      H      0.824990000000     0.140570000000     0.497070000000     0.03164    
H71      H      0.731470000000     0.146900000000     0.432420000000     0.0230466  
H72      H      0.880100000000     0.303240000000     0.575670000000     0.0305956  
H73      H      0.641220000000     0.322030000000     0.481650000000     0.0320199  
H74      H      0.617200000000     0.231220000000     0.481030000000     0.0395574  
H75      H      0.703610000000     0.386760000000     0.507350000000     0.0337008  
H76      H      0.795580000000     0.410530000000     0.506780000000     0.0413404  
H77      H      0.729830000000     0.879660000000     0.434900000000     0.0291946  
H78      H      0.796360000000     0.616940000000     0.519170000000     0.0408512  
H79      H      0.618080000000     0.796620000000     0.494410000000     0.0409029  
H80      H      0.878990000000     0.726220000000     0.582840000000     0.0327937  
H81      H      0.704340000000     0.641150000000     0.518990000000     0.0338301  
H82      H      0.641420000000     0.705130000000     0.492680000000     0.0335287  
H83      H      0.649210000000     0.801870000000     0.434310000000     0.0319173  
H84      H      0.799690000000     0.647180000000     0.580370000000     0.0320722  
H85      H      0.825990000000     0.886420000000     0.496430000000     0.0340272  
H86      H      0.734950000000     0.911040000000     0.494840000000     0.0368908  
H87      H      0.888680000000     0.822600000000     0.523530000000     0.0354007  
H88      H      0.912240000000     0.731700000000     0.523880000000     0.0437879  
H89      H      0.296660000000     0.122120000000     0.497650000000     0.0407152  
H90      H      0.231970000000     0.389500000000     0.435910000000     0.0231942  
H91      H      0.383720000000     0.227830000000     0.569630000000     0.0298708  
H92      H      0.117660000000     0.302170000000     0.482710000000     0.0388383  
H93      H      0.324540000000     0.392590000000     0.501410000000     0.0313247  
H94      H      0.387400000000     0.326810000000     0.522790000000     0.032422   
H95      H      0.410510000000     0.235150000000     0.507890000000     0.034498   
H96      H      0.232970000000     0.416520000000     0.498680000000     0.0369177  
H97      H      0.204540000000     0.145580000000     0.497720000000     0.0335198  
H98      H      0.297030000000     0.145060000000     0.561390000000     0.0320363  
H99      H      0.141950000000     0.211310000000     0.475280000000     0.0315128  
H100     H      0.152920000000     0.312220000000     0.425230000000     0.0224564  
H101     H      0.413040000000     0.799710000000     0.515400000000     0.0410207  
H102     H      0.145590000000     0.734360000000     0.438180000000     0.0324362  
H103     H      0.303890000000     0.884250000000     0.580900000000     0.0332715  
H104     H      0.232480000000     0.622380000000     0.493280000000     0.0358336  
H105     H      0.141450000000     0.828830000000     0.500130000000     0.0341376  
H106     H      0.206290000000     0.891460000000     0.525030000000     0.0346869  
H107     H      0.298350000000     0.914880000000     0.520740000000     0.04223    
H108     H      0.117290000000     0.737010000000     0.500350000000     0.0404525  
H109     H      0.388790000000     0.708520000000     0.514910000000     0.0339007  
H110     H      0.384940000000     0.802420000000     0.577060000000     0.0340968  
H111     H      0.324080000000     0.646030000000     0.489520000000     0.0325358  
H112     H      0.225830000000     0.654070000000     0.433750000000     0.0274655  
H113     H      0.906720000000     0.490340000000     0.302570000000     0.0351713  
H114     H      0.645390000000     0.574750000000     0.223130000000     0.0323089  
H115     H      0.793250000000     0.445170000000     0.393240000000     0.03297    
H116     H      0.732050000000     0.502620000000     0.120560000000     0.0437808  
H117     H      0.635450000000     0.523920000000     0.322290000000     0.0340168  
H118     H      0.697390000000     0.504240000000     0.389310000000     0.0333085  
H119     H      0.789720000000     0.509780000000     0.414350000000     0.0375766  
H120     H      0.614250000000     0.514050000000     0.230640000000     0.0431924  
H121     H      0.884810000000     0.484000000000     0.212790000000     0.0326936  
H122     H      0.872320000000     0.432710000000     0.314130000000     0.0280197  
H123     H      0.823290000000     0.505420000000     0.146110000000     0.0352646  
H124     H      0.728920000000     0.566330000000     0.144110000000     0.0330418  
H125     H      0.304070000000     0.578570000000     0.141470000000     0.0250222  
H126     H      0.225400000000     0.482450000000     0.404280000000     0.0407553  
H127     H      0.407520000000     0.504370000000     0.229620000000     0.0412839  
H128     H      0.127670000000     0.457080000000     0.289380000000     0.0237193  
H129     H      0.315720000000     0.478510000000     0.380450000000     0.0319162  
H130     H      0.382830000000     0.501300000000     0.319700000000     0.0334577  
H131     H      0.384740000000     0.568500000000     0.229040000000     0.0290954  
H132     H      0.211340000000     0.430250000000     0.362050000000     0.0220471  
H133     H      0.203010000000     0.536570000000     0.138000000000     0.0316133  
H134     H      0.295240000000     0.516580000000     0.115450000000     0.0321247  
H135     H      0.135600000000     0.518520000000     0.200120000000     0.0309514  
H136     H      0.113860000000     0.523320000000     0.294130000000     0.0329086  
H137     H      0.303880000000     0.478990000000     0.902440000000     0.0320312  
H138     H      0.235160000000     0.451510000000     0.625550000000     0.0290822  
H139     H      0.405250000000     0.543260000000     0.798070000000     0.0268923  
H140     H      0.124720000000     0.488610000000     0.723810000000     0.0436207  
H141     H      0.333310000000     0.502290000000     0.634540000000     0.0331731  
H142     H      0.397670000000     0.509180000000     0.701800000000     0.0306372  
H143     H      0.413900000000     0.476340000000     0.794930000000     0.0327226  
H144     H      0.239890000000     0.518940000000     0.613650000000     0.0353882  
H145     H      0.211470000000     0.487340000000     0.879260000000     0.0313651  
H146     H      0.304980000000     0.544580000000     0.885700000000     0.0268451  
H147     H      0.148000000000     0.474730000000     0.812140000000     0.0350735  
H148     H      0.159040000000     0.432310000000     0.705910000000     0.0303149  
H149     H      0.740380000000     0.497580000000     0.912970000000     0.0429931  
H150     H      0.810060000000     0.585470000000     0.656210000000     0.0325561  
H151     H      0.656730000000     0.435780000000     0.803080000000     0.0278724  
H152     H      0.919610000000     0.514260000000     0.733270000000     0.0450548  
H153     H      0.712320000000     0.525760000000     0.645470000000     0.0342057  
H154     H      0.648740000000     0.498480000000     0.708070000000     0.0323932  
H155     H      0.624860000000     0.495780000000     0.798120000000     0.0365397  
H156     H      0.802960000000     0.527210000000     0.621050000000     0.0442642  
H157     H      0.832740000000     0.492890000000     0.889050000000     0.0356859  
H158     H      0.735440000000     0.436350000000     0.883880000000     0.0309737  
H159     H      0.896860000000     0.517430000000     0.825730000000     0.0365069  
H160     H      0.893720000000     0.577190000000     0.732310000000     0.0336881  
H161     H      0.738750000000     0.627010000000     0.069710000000     0.0338104  
H162     H      0.807900000000     0.901600000000     0.002350000000     0.0382342  
H163     H      0.628610000000     0.723210000000     0.016980000000     0.0424691  
H164     H      0.905870000000     0.791730000000     0.954560000000     0.0352453  
H165     H      0.717710000000     0.877440000000     0.000200000000     0.0323805  
H166     H      0.653030000000     0.813440000000     0.021200000000     0.0343323  
H167     H      0.657620000000     0.715790000000     0.077750000000     0.0330012  
H168     H      0.816910000000     0.869390000000     0.942920000000     0.0323211  
H169     H      0.835530000000     0.630460000000     0.019750000000     0.0350784  
H170     H      0.741030000000     0.609100000000     0.004680000000     0.04236    
H171     H      0.901140000000     0.695460000000     0.004220000000     0.0330764  
H172     H      0.922540000000     0.789910000000     0.020000000000     0.0346284  
H173     H      0.724290000000     0.362840000000     0.942880000000     0.0303072  
H174     H      0.791940000000     0.106390000000     0.022840000000     0.0385836  
H175     H      0.612890000000     0.287730000000     0.010300000000     0.0303338  
H176     H      0.865150000000     0.211690000000     0.098870000000     0.0273235  
H177     H      0.698170000000     0.129450000000     0.026230000000     0.0332782  
H178     H      0.635070000000     0.194310000000     0.002150000000     0.0302936  
H179     H      0.639370000000     0.290770000000     0.947900000000     0.0271422  
H180     H      0.793050000000     0.131110000000     0.086620000000     0.032161   
H181     H      0.820070000000     0.375160000000     0.009570000000     0.0331271  
H182     H      0.731360000000     0.400190000000     0.999200000000     0.0446321  
H183     H      0.881540000000     0.311610000000     0.039780000000     0.0330251  
H184     H      0.905460000000     0.222520000000     0.045150000000     0.0366106  
H185     H      0.244550000000     0.919710000000     0.019060000000     0.0345892  
H186     H      0.308610000000     0.657900000000     0.946730000000     0.0251506  
H187     H      0.171530000000     0.816510000000     0.098610000000     0.0289506  
H188     H      0.422720000000     0.737300000000     0.007830000000     0.0337049  
H189     H      0.214870000000     0.650710000000     0.013680000000     0.0293682  
H190     H      0.153830000000     0.715540000000     0.041970000000     0.0333376  
H191     H      0.130460000000     0.804940000000     0.045570000000     0.0423211  
H192     H      0.304650000000     0.625380000000     0.006700000000     0.0275514  
H193     H      0.338110000000     0.896120000000     0.022260000000     0.0323859  
H194     H      0.244170000000     0.897470000000     0.083170000000     0.0283902  
H195     H      0.400510000000     0.830340000000     0.999010000000     0.0390983  
H196     H      0.393740000000     0.733250000000     0.946630000000     0.0287684  
H197     H      0.293810000000     0.418460000000     0.002170000000     0.0313304  
H198     H      0.220560000000     0.169780000000     0.094370000000     0.0231271  
H199     H      0.367550000000     0.307210000000     0.933580000000     0.0255252  
H200     H      0.111510000000     0.238550000000     0.017590000000     0.034135   
H201     H      0.317580000000     0.150580000000     0.030770000000     0.0276643  
H202     H      0.380930000000     0.211810000000     0.999490000000     0.0405642  
H203     H      0.406490000000     0.300560000000     0.989030000000     0.0414765  
H204     H      0.228160000000     0.126950000000     0.041630000000     0.0386002  
H205     H      0.199520000000     0.395990000000     0.996790000000     0.0406275  
H206     H      0.295050000000     0.391710000000     0.939960000000     0.0250127  
H207     H      0.134790000000     0.333160000000     0.022100000000     0.0283326  
H208     H      0.134850000000     0.240560000000     0.081140000000     0.0250515  
H209     H      0.658120000000     0.082130000000     0.721560000000     0.0310856  
H210     H      0.920070000000     0.009910000000     0.795860000000     0.0426249  
H211     H      0.740690000000     0.010000000000     0.614950000000     0.0338124  
H212     H      0.810940000000     0.941380000000     0.877290000000     0.0347478  
H213     H      0.898460000000     0.999730000000     0.703190000000     0.0460795  
H214     H      0.834480000000     0.019620000000     0.638140000000     0.02919    
H215     H      0.738910000000     0.074440000000     0.636130000000     0.0285402  
H216     H      0.896240000000     0.945780000000     0.799530000000     0.0381181  
H217     H      0.649770000000     0.023880000000     0.818260000000     0.0318902  
H218     H      0.626490000000     0.022270000000     0.728140000000     0.0418619  
H219     H      0.713000000000     0.000110000000     0.882580000000     0.0371756  
H220     H      0.803700000000     0.001730000000     0.907750000000     0.0398714  
H221     H      0.124580000000     0.031750000000     0.797300000000     0.0423289  
H222     H      0.394650000000     0.955480000000     0.730870000000     0.0330055  
H223     H      0.234260000000     0.092280000000     0.884550000000     0.030162   
H224     H      0.303490000000     0.007030000000     0.619910000000     0.036274   
H225     H      0.396970000000     0.015370000000     0.824710000000     0.0329688  
H226     H      0.332370000000     0.038120000000     0.888200000000     0.0335144  
H227     H      0.239830000000     0.030340000000     0.911900000000     0.0366229  
H228     H      0.419540000000     0.019360000000     0.732180000000     0.0375126  
H229     H      0.148510000000     0.030040000000     0.707230000000     0.0341043  
H230     H      0.155150000000     0.092370000000     0.802350000000     0.0337598  
H231     H      0.212640000000     0.004690000000     0.644400000000     0.0311596  
H232     H      0.311170000000     0.948030000000     0.652710000000     0.0303128  
H233     H      0.290830000000     0.973500000000     0.392020000000     0.0350543  
H234     H      0.230820000000     0.051010000000     0.118840000000     0.0373336  
H235     H      0.405380000000     0.022370000000     0.299650000000     0.0347172  
H236     H      0.138980000000     0.104810000000     0.225640000000     0.0238943  
H237     H      0.320050000000     0.042560000000     0.144400000000     0.0304629  
H238     H      0.382260000000     0.017020000000     0.209040000000     0.0309128  
H239     H      0.374120000000     0.962340000000     0.306040000000     0.0294335  
H240     H      0.223150000000     0.108480000000     0.155460000000     0.023323   
H241     H      0.198140000000     0.032800000000     0.389250000000     0.033077   
H242     H      0.292230000000     0.038280000000     0.412130000000     0.0414753  
H243     H      0.134920000000     0.054070000000     0.323840000000     0.0305409  
H244     H      0.112610000000     0.042350000000     0.231380000000     0.0356343  
H245     H      0.880470000000     0.949930000000     0.225670000000     0.0246897  
H246     H      0.614040000000     0.017420000000     0.293970000000     0.033915   
H247     H      0.794650000000     0.011180000000     0.114670000000     0.0350745  
H248     H      0.719550000000     0.097660000000     0.364030000000     0.0231142  
H249     H      0.636310000000     0.021700000000     0.200440000000     0.0298366  
H250     H      0.701690000000     0.999700000000     0.137470000000     0.0392018  
H251     H      0.799540000000     0.948480000000     0.140180000000     0.0279031  
H252     H      0.635980000000     0.082320000000     0.292090000000     0.0233632  
H253     H      0.884420000000     0.013340000000     0.319200000000     0.0306905  
H254     H      0.908660000000     0.011810000000     0.228740000000     0.027603   
H255     H      0.819660000000     0.039750000000     0.381050000000     0.0322388  
H256     H      0.729540000000     0.044380000000     0.405430000000     0.0390493  
H257     H      0.039390000000     0.300940000000     0.619450000000     0.0353292  
H258     H      0.953470000000     0.225190000000     0.880260000000     0.0301374  
H259     H      0.086450000000     0.391240000000     0.732350000000     0.0295902  
H260     H      0.029390000000     0.121200000000     0.796460000000     0.0424801  
H261     H      0.001560000000     0.325270000000     0.886650000000     0.0313528  
H262     H      0.022410000000     0.391290000000     0.824370000000     0.0343109  
H263     H      0.022400000000     0.414910000000     0.733380000000     0.0407321  
H264     H      0.014970000000     0.233740000000     0.909760000000     0.0298855  
H265     H      0.049860000000     0.210320000000     0.643170000000     0.0319683  
H266     H      0.098650000000     0.311470000000     0.651470000000     0.0280351  
H267     H      0.028200000000     0.144400000000     0.705260000000     0.0330286  
H268     H      0.964680000000     0.143100000000     0.797000000000     0.0404583  
H269     H      0.021980000000     0.735120000000     0.615220000000     0.0339636  
H270     H      0.076520000000     0.803250000000     0.885830000000     0.0371836  
H271     H      0.956370000000     0.644110000000     0.720880000000     0.0308988  
H272     H      0.008860000000     0.911830000000     0.796930000000     0.0420004  
H273     H      0.022390000000     0.707550000000     0.884140000000     0.035249   
H274     H      0.006470000000     0.643320000000     0.818750000000     0.0324941  
H275     H      0.020290000000     0.621470000000     0.727730000000     0.0375954  
H276     H      0.011260000000     0.799730000000     0.906960000000     0.042297   
H277     H      0.010510000000     0.827030000000     0.638580000000     0.0315633  
H278     H      0.957630000000     0.729490000000     0.636990000000     0.031011   
H279     H      0.025850000000     0.891390000000     0.704090000000     0.0355802  
H280     H      0.074540000000     0.894210000000     0.799870000000     0.0394372  
H281     H      0.006590000000     0.617890000000     0.295000000000     0.0268147  
H282     H      0.094360000000     0.878120000000     0.223930000000     0.0277258  
H283     H      0.946830000000     0.729770000000     0.378160000000     0.0268202  
H284     H      0.033070000000     0.793840000000     0.115230000000     0.0381255  
H285     H      0.034070000000     0.887610000000     0.319740000000     0.0327677  
H286     H      0.007460000000     0.825200000000     0.383530000000     0.0318094  
H287     H      0.008020000000     0.734530000000     0.408020000000     0.0359228  
H288     H      0.033700000000     0.910220000000     0.228870000000     0.0339808  
H289     H      0.006010000000     0.640550000000     0.203860000000     0.0295702  
H290     H      0.945840000000     0.648960000000     0.299440000000     0.0237846  
H291     H      0.032850000000     0.702980000000     0.140090000000     0.0328578  
H292     H      0.093510000000     0.799070000000     0.146660000000     0.028954   
H293     H      0.069350000000     0.296640000000     0.402090000000     0.0260345  
H294     H      0.048940000000     0.228950000000     0.122330000000     0.0360681  
H295     H      0.037350000000     0.410270000000     0.299930000000     0.0357166  
H296     H      0.976040000000     0.133860000000     0.225320000000     0.0328701  
H297     H      0.041930000000     0.322120000000     0.144150000000     0.0309069  
H298     H      0.054860000000     0.385800000000     0.210810000000     0.0311855  
H299     H      0.095940000000     0.378600000000     0.314900000000     0.0213978  
H300     H      0.982050000000     0.230120000000     0.137400000000     0.0331698  
H301     H      0.018420000000     0.204300000000     0.389550000000     0.0302987  
H302     H      0.001790000000     0.298980000000     0.407450000000     0.0315039  
H303     H      0.010280000000     0.139800000000     0.322970000000     0.0299984  
H304     H      0.042190000000     0.120070000000     0.231320000000     0.03285    
N1       N      0.488120000000     0.358250000000     0.169100000000    -0.220091   
N2       N      0.533300000000     0.171670000000     0.360830000000    -0.233257   
N3       N      0.532490000000     0.666190000000     0.165570000000    -0.203952   
N4       N      0.508940000000     0.859130000000     0.357650000000    -0.221139   
N5       N      0.520860000000     0.861390000000     0.664910000000    -0.200169   
N6       N      0.508680000000     0.667470000000     0.857320000000    -0.223643   
N7       N      0.536370000000     0.171510000000     0.669710000000    -0.211701   
N8       N      0.487190000000     0.359150000000     0.859900000000    -0.230631   
N9       N      0.858510000000     0.359850000000     0.522580000000    -0.221685   
N10      N      0.670650000000     0.168080000000     0.480770000000    -0.230709   
N11      N      0.859390000000     0.668500000000     0.530300000000    -0.203655   
N12      N      0.671090000000     0.859350000000     0.486370000000    -0.220511   
N13      N      0.170420000000     0.365650000000     0.482320000000    -0.232748   
N14      N      0.359050000000     0.171880000000     0.517020000000    -0.220831   
N15      N      0.168730000000     0.674550000000     0.487020000000    -0.22058    
N16      N      0.361780000000     0.862750000000     0.528890000000    -0.20372    
N17      N      0.667840000000     0.519630000000     0.169020000000    -0.198842   
N18      N      0.853110000000     0.491850000000     0.365280000000    -0.223017   
N19      N      0.161800000000     0.492860000000     0.353180000000    -0.233855   
N20      N      0.358500000000     0.524370000000     0.167000000000    -0.222104   
N21      N      0.177420000000     0.495840000000     0.660760000000    -0.215546   
N22      N      0.366960000000     0.501810000000     0.856120000000    -0.240502   
N23      N      0.867370000000     0.530710000000     0.672060000000    -0.19776    
N24      N      0.677120000000     0.487540000000     0.861220000000    -0.21428    
N25      N      0.872960000000     0.851340000000     0.998100000000    -0.201082   
N26      N      0.678950000000     0.658610000000     0.025260000000    -0.196197   
N27      N      0.853090000000     0.158440000000     0.039890000000    -0.222632   
N28      N      0.666290000000     0.348940000000     0.996960000000    -0.212278   
N29      N      0.369070000000     0.675700000000     0.997240000000    -0.221745   
N30      N      0.183050000000     0.868650000000     0.038740000000    -0.221071   
N31      N      0.163310000000     0.178150000000     0.038540000000    -0.228475   
N32      N      0.355280000000     0.365570000000     0.987160000000    -0.230306   
N33      N      0.868460000000     0.994530000000     0.857430000000    -0.192543   
N34      N      0.678320000000     0.028950000000     0.664610000000    -0.21206    
N35      N      0.368070000000     0.002390000000     0.671000000000    -0.205511   
N36      N      0.176510000000     0.040980000000     0.860500000000    -0.211639   
N37      N      0.165940000000     0.053520000000     0.169580000000    -0.234339   
N38      N      0.353620000000     0.015570000000     0.362960000000    -0.219629   
N39      N      0.664920000000     0.039800000000     0.354000000000    -0.231802   
N40      N      0.857690000000     0.998660000000     0.165770000000    -0.220263   
N41      N      0.009100000000     0.170780000000     0.858360000000    -0.216403   
N42      N      0.041060000000     0.364550000000     0.671380000000    -0.215602   
N43      N      0.029050000000     0.862710000000     0.858750000000    -0.197808   
N44      N      0.006950000000     0.671710000000     0.664510000000    -0.206377   
N45      N      0.041360000000     0.857360000000     0.166780000000    -0.222886   
N46      N      0.997920000000     0.670850000000     0.357000000000    -0.221574   
N47      N      0.022690000000     0.167650000000     0.168510000000    -0.234136   
N48      N      0.035300000000     0.359260000000     0.363910000000    -0.235827   
O1       O      0.022370000000     0.146210000000     0.082710000000    -1.04992    
O2       O      0.031080000000     0.878680000000     0.081400000000    -0.790043   
O3       O      0.944550000000     0.006050000000     0.144610000000    -1.01956    
O4       O      0.082740000000     0.032080000000     0.145920000000    -1.08664    
O5       O      0.148060000000     0.037330000000     0.084250000000    -1.0379     
O6       O      0.880860000000     0.005560000000     0.080320000000    -0.792202   
O7       O      0.026530000000     0.942450000000     0.145100000000    -1.02686    
O8       O      0.019930000000     0.081960000000     0.145460000000    -1.07213    
O9       O      0.076260000000     0.968830000000     0.068820000000    -2.08388    
O10      O      0.964710000000     0.065300000000     0.068040000000    -2.09101    
O11      O      0.965620000000     0.954470000000     0.069740000000    -0.866772   
O12      O      0.028680000000     0.025820000000     0.024350000000    -2.56314    
O13      O      0.026300000000     0.883690000000     0.945130000000    -0.714196   
O14      O      0.011760000000     0.148130000000     0.944250000000    -0.92493    
O15      O      0.890230000000     0.938260000000     0.007000000000    -0.741982   
O16      O      0.156990000000     0.952800000000     0.023920000000    -0.937203   
O17      O      0.146260000000     0.091340000000     0.028730000000    -1.02878    
O18      O      0.879340000000     0.074810000000     0.023440000000    -0.770461   
O19      O      0.953750000000     0.008450000000     0.880880000000    -0.587454   
O20      O      0.090550000000     0.027460000000     0.881120000000    -0.631669   
O21      O      0.888120000000     0.002890000000     0.943920000000    -0.712467   
O22      O      0.153540000000     0.029750000000     0.945820000000    -0.92563    
O23      O      0.958650000000     0.877470000000     0.008560000000    -0.721814   
O24      O      0.939610000000     0.142320000000     0.024960000000    -0.945836   
O25      O      0.078630000000     0.151130000000     0.026260000000    -1.01871    
O26      O      0.096560000000     0.885360000000     0.024680000000    -0.767977   
O27      O      0.025730000000     0.948720000000     0.881540000000    -0.590327   
O28      O      0.018510000000     0.085210000000     0.880060000000    -0.638179   
O29      O      0.070590000000     0.073260000000     0.966700000000    -1.96952    
O30      O      0.975940000000     0.965560000000     0.965570000000    -1.59563    
O31      O      0.959330000000     0.064500000000     0.958290000000    -1.24363    
O32      O      0.077040000000     0.962560000000     0.959040000000    -1.24502    
O33      O      0.023660000000     0.382580000000     0.448240000000    -1.06828    
O34      O      0.010280000000     0.650650000000     0.442270000000    -0.79388    
O35      O      0.938970000000     0.506080000000     0.384510000000    -1.02463    
O36      O      0.077670000000     0.506580000000     0.378970000000    -1.06567    
O37      O      0.144140000000     0.502980000000     0.439500000000    -1.04614    
O38      O      0.876470000000     0.506510000000     0.449830000000    -0.791346   
O39      O      0.004730000000     0.585100000000     0.380400000000    -1.01011    
O40      O      0.025490000000     0.445470000000     0.384180000000    -1.06456    
O41      O      0.067400000000     0.565540000000     0.455120000000    -2.08835    
O42      O      0.964090000000     0.459090000000     0.462240000000    -2.10048    
O43      O      0.955910000000     0.569760000000     0.457400000000    -0.863961   
O44      O      0.025650000000     0.505540000000     0.502850000000    -2.58355    
O45      O      0.012270000000     0.649160000000     0.578520000000    -0.708526   
O46      O      0.029290000000     0.384910000000     0.585720000000    -0.950415   
O47      O      0.881420000000     0.582580000000     0.520260000000    -0.742992   
O48      O      0.147840000000     0.588690000000     0.499180000000    -0.962306   
O49      O      0.147840000000     0.450340000000     0.495840000000    -1.04955    
O50      O      0.880440000000     0.445710000000     0.515630000000    -0.784632   
O51      O      0.953040000000     0.520200000000     0.647650000000    -0.585851   
O52      O      0.091370000000     0.511210000000     0.643580000000    -0.638997   
O53      O      0.886110000000     0.521840000000     0.585760000000    -0.720299   
O54      O      0.152500000000     0.511590000000     0.577040000000    -0.942535   
O55      O      0.945600000000     0.647750000000     0.518210000000    -0.729909   
O56      O      0.945160000000     0.382420000000     0.517690000000    -0.950639   
O57      O      0.084750000000     0.385750000000     0.498210000000    -1.05596    
O58      O      0.082780000000     0.651590000000     0.498770000000    -0.766651   
O59      O      0.018250000000     0.585960000000     0.643660000000    -0.60153    
O60      O      0.027230000000     0.449410000000     0.648640000000    -0.635538   
O61      O      0.072830000000     0.463630000000     0.559870000000    -2.01571    
O62      O      0.970190000000     0.562840000000     0.561230000000    -1.61264    
O63      O      0.962070000000     0.463520000000     0.572380000000    -1.25357    
O64      O      0.070690000000     0.574410000000     0.565350000000    -1.25332    
O65      O      0.646630000000     0.029600000000     0.440240000000    -1.01531    
O66      O      0.377960000000     0.019650000000     0.448500000000    -0.780578   
O67      O      0.511490000000     0.945540000000     0.380310000000    -0.991074   
O68      O      0.523750000000     0.085780000000     0.382440000000    -1.06033    
O69      O      0.525240000000     0.149150000000     0.446000000000    -1.04805    
O70      O      0.515300000000     0.880920000000     0.443300000000    -0.808179   
O71      O      0.440630000000     0.016700000000     0.383330000000    -1.0151     
O72      O      0.580360000000     0.027040000000     0.379360000000    -1.0617     
O73      O      0.465270000000     0.072220000000     0.460490000000    -2.07104    
O74      O      0.570010000000     0.967210000000     0.455950000000    -2.07091    
O75      O      0.458760000000     0.961320000000     0.457380000000    -0.868286   
O76      O      0.527270000000     0.026970000000     0.502440000000    -2.55533    
O77      O      0.387310000000     0.010740000000     0.584700000000    -0.712469   
O78      O      0.653640000000     0.020920000000     0.579070000000    -0.902145   
O79      O      0.448240000000     0.884160000000     0.518240000000    -0.751882   
O80      O      0.445730000000     0.149650000000     0.514120000000    -0.946585   
O81      O      0.585160000000     0.147430000000     0.496910000000    -1.04046    
O82      O      0.585470000000     0.881780000000     0.499300000000    -0.788091   
O83      O      0.522040000000     0.947890000000     0.643940000000    -0.596314   
O84      O      0.527530000000     0.085500000000     0.647590000000    -0.631255   
O85      O      0.516870000000     0.884120000000     0.579220000000    -0.736958   
O86      O      0.526930000000     0.149340000000     0.583970000000    -0.929297   
O87      O      0.383600000000     0.948860000000     0.520340000000    -0.730184   
O88      O      0.650170000000     0.945080000000     0.499890000000    -0.931258   
O89      O      0.648940000000     0.083510000000     0.495880000000    -1.03031    
O90      O      0.381520000000     0.085840000000     0.512120000000    -0.773504   
O91      O      0.453850000000     0.013090000000     0.647000000000    -0.595296   
O92      O      0.591640000000     0.021560000000     0.644790000000    -0.638717   
O93      O      0.573770000000     0.070420000000     0.559640000000    -1.97239    
O94      O      0.472000000000     0.969710000000     0.561330000000    -1.62042    
O95      O      0.572510000000     0.959530000000     0.565880000000    -1.28268    
O96      O      0.462680000000     0.069210000000     0.570950000000    -1.24643    
O97      O      0.442240000000     0.383270000000     0.999020000000    -1.02606    
O98      O      0.454540000000     0.650510000000     0.005850000000    -0.782082   
O99      O      0.382500000000     0.520480000000     0.081370000000    -1.01795    
O100     O      0.386990000000     0.506670000000     0.942020000000    -1.08512    
O101     O      0.452350000000     0.502900000000     0.880110000000    -1.09061    
O102     O      0.444920000000     0.514580000000     0.146590000000    -0.804249   
O103     O      0.387770000000     0.589120000000     0.006490000000    -1.02091    
O104     O      0.381500000000     0.449840000000     0.000050000000    -1.07298    
O105     O      0.466100000000     0.562930000000     0.956690000000    -2.11669    
O106     O      0.458150000000     0.459440000000     0.061190000000    -2.09147    
O107     O      0.460980000000     0.570490000000     0.066460000000    -0.872039   
O108     O      0.506530000000     0.501270000000     0.002170000000    -2.58699    
O109     O      0.591530000000     0.639870000000     0.017960000000    -0.710681   
O110     O      0.581220000000     0.374800000000     0.007520000000    -0.925672   
O111     O      0.520920000000     0.580300000000     0.144250000000    -0.740839   
O112     O      0.516850000000     0.581590000000     0.879660000000    -0.974708   
O113     O      0.503380000000     0.443790000000     0.881860000000    -1.06564    
O114     O      0.501320000000     0.443590000000     0.146730000000    -0.779016   
O115     O      0.648210000000     0.508020000000     0.083190000000    -0.590387   
O116     O      0.654240000000     0.498870000000     0.946320000000    -0.623975   
O117     O      0.581780000000     0.514080000000     0.145380000000    -0.730832   
O118     O      0.590920000000     0.500390000000     0.881950000000    -0.964388   
O119     O      0.524950000000     0.644470000000     0.079690000000    -0.735427   
O120     O      0.502400000000     0.379070000000     0.083840000000    -0.942533   
O121     O      0.498980000000     0.380300000000     0.945290000000    -1.02301    
O122     O      0.516280000000     0.645760000000     0.942940000000    -0.766957   
O123     O      0.653810000000     0.573040000000     0.016580000000    -0.579978   
O124     O      0.648760000000     0.435200000000     0.009090000000    -0.628768   
O125     O      0.564460000000     0.454460000000     0.960090000000    -2.00348    
O126     O      0.565820000000     0.555900000000     0.059740000000    -1.61041    
O127     O      0.569280000000     0.455880000000     0.070350000000    -1.24824    
O128     O      0.577280000000     0.564940000000     0.960620000000    -1.24768    
Tb1      Tb     0.015970000000     0.012260000000     0.099700000000     6.44488    
Tb2      Tb     0.025740000000     0.928950000000     0.015910000000     4.29846    
Tb3      Tb     0.011950000000     0.100970000000     0.013810000000     6.16203    
Tb4      Tb     0.932340000000     0.010190000000     0.015270000000     4.35123    
Tb5      Tb     0.105860000000     0.019400000000     0.014530000000     6.16733    
Tb6      Tb     0.022390000000     0.017990000000     0.928470000000     3.17816    
Tb7      Tb     0.010270000000     0.515590000000     0.427560000000     6.33781    
Tb8      Tb     0.015530000000     0.602060000000     0.508840000000     4.29578    
Tb9      Tb     0.015360000000     0.429590000000     0.516050000000     6.36082    
Tb10     Tb     0.929000000000     0.513510000000     0.514200000000     4.37611    
Tb11     Tb     0.102280000000     0.518740000000     0.510030000000     6.29135    
Tb12     Tb     0.021480000000     0.515610000000     0.598640000000     3.21375    
Tb13     Tb     0.512490000000     0.015780000000     0.427070000000     6.29278    
Tb14     Tb     0.430610000000     0.018130000000     0.513200000000     4.29446    
Tb15     Tb     0.604090000000     0.014860000000     0.510620000000     6.05528    
Tb16     Tb     0.518080000000     0.930570000000     0.509440000000     4.47946    
Tb17     Tb     0.516080000000     0.103030000000     0.514540000000     6.239      
Tb18     Tb     0.522580000000     0.018180000000     0.598450000000     3.22552    
Tb19     Tb     0.430590000000     0.516950000000     0.012220000000     6.40938    
Tb20     Tb     0.518740000000     0.597470000000     0.010730000000     4.29772    
Tb21     Tb     0.513580000000     0.424870000000     0.014400000000     6.12773    
Tb22     Tb     0.512300000000     0.510760000000     0.098120000000     4.41078    
Tb23     Tb     0.520390000000     0.512140000000     0.926720000000     6.49213    
Tb24     Tb     0.603620000000     0.505140000000     0.012310000000     3.14209    


