data_structure

_audit_creation_method RASPA-1.0
_audit_creation_date 2023-5-19
_audit_author_name 'Poobodin Mano'

_cell_length_a    33.7375
_cell_length_b    33.7239
_cell_length_c    33.7455
_cell_angle_alpha 90
_cell_angle_beta  90
_cell_angle_gamma 90
_cell_volume      38394.3

_symmetry_cell_setting          triclinic
_symmetry_space_group_name_Hall 'P 1'
_symmetry_space_group_name_H-M  'P 1'
_symmetry_Int_Tables_number     1

_symmetry_equiv_pos_as_xyz 'x,y,z'

loop_
_atom_site_label
_atom_site_type_symbol
_atom_site_fract_x
_atom_site_fract_y
_atom_site_fract_z
_atom_site_charge
C1       C      0.984510000000     0.086850000000     0.086650000000     0.398217   
C2       C      0.987030000000     0.884110000000     0.086280000000     0.397638   
C3       C      0.884660000000     0.985230000000     0.086550000000     0.397754   
C4       C      0.087260000000     0.985150000000     0.086080000000     0.42093    
C5       C      0.984410000000     0.884820000000     0.883260000000     0.420963   
C6       C      0.985970000000     0.087610000000     0.884450000000     0.397764   
C7       C      0.884630000000     0.883430000000     0.984180000000     0.422423   
C8       C      0.087200000000     0.884550000000     0.985590000000     0.420024   
C9       C      0.086120000000     0.087540000000     0.984010000000     0.419411   
C10      C      0.883280000000     0.085840000000     0.986670000000     0.39625    
C11      C      0.884210000000     0.984000000000     0.884190000000     0.424769   
C12      C      0.086640000000     0.987050000000     0.883700000000     0.398436   
C13      C      0.983810000000     0.383570000000     0.384340000000     0.419828   
C14      C      0.985360000000     0.586330000000     0.383310000000     0.419742   
C15      C      0.882950000000     0.483700000000     0.384650000000     0.420107   
C16      C      0.085710000000     0.486500000000     0.383190000000     0.419531   
C17      C      0.984220000000     0.587040000000     0.586250000000     0.397527   
C18      C      0.986820000000     0.384320000000     0.586790000000     0.420016   
C19      C      0.883210000000     0.586370000000     0.486160000000     0.398147   
C20      C      0.086010000000     0.587170000000     0.483700000000     0.399143   
C21      C      0.086700000000     0.384530000000     0.485680000000     0.399123   
C22      C      0.883910000000     0.383750000000     0.485400000000     0.420131   
C23      C      0.884380000000     0.486510000000     0.587250000000     0.419448   
C24      C      0.086890000000     0.484930000000     0.586130000000     0.418987   
C25      C      0.585790000000     0.984880000000     0.383840000000     0.423816   
C26      C      0.383430000000     0.986980000000     0.383960000000     0.397491   
C27      C      0.485510000000     0.884510000000     0.383520000000     0.398399   
C28      C      0.484300000000     0.087050000000     0.383840000000     0.401385   
C29      C      0.383280000000     0.985120000000     0.586200000000     0.420014   
C30      C      0.586010000000     0.985840000000     0.586110000000     0.398021   
C31      C      0.382860000000     0.884750000000     0.485810000000     0.419509   
C32      C      0.383860000000     0.087270000000     0.484190000000     0.419484   
C33      C      0.586890000000     0.085920000000     0.486200000000     0.397934   
C34      C      0.585600000000     0.883360000000     0.484250000000     0.41927    
C35      C      0.483840000000     0.884180000000     0.586390000000     0.39831    
C36      C      0.485770000000     0.087110000000     0.586360000000     0.398381   
C37      C      0.383890000000     0.384380000000     0.984020000000     0.397996   
C38      C      0.586550000000     0.383840000000     0.986360000000     0.419924   
C39      C      0.484510000000     0.383980000000     0.884100000000     0.41967    
C40      C      0.485810000000     0.384350000000     0.086780000000     0.419685   
C41      C      0.587190000000     0.586390000000     0.984340000000     0.397972   
C42      C      0.384560000000     0.587350000000     0.985990000000     0.398084   
C43      C      0.586750000000     0.486290000000     0.883980000000     0.398865   
C44      C      0.586540000000     0.484100000000     0.086570000000     0.398095   
C45      C      0.383880000000     0.486810000000     0.086410000000     0.397281   
C46      C      0.384230000000     0.484740000000     0.883580000000     0.397844   
C47      C      0.486560000000     0.587050000000     0.884020000000     0.419025   
C48      C      0.484750000000     0.586870000000     0.086670000000     0.418808   
C49      C      0.486260000000     0.336030000000     0.184750000000    -0.217775   
C50      C      0.484150000000     0.105400000000     0.315510000000     0.0793731  
C51      C      0.484540000000     0.155310000000     0.364970000000     0.0750292  
C52      C      0.484410000000     0.134160000000     0.285760000000    -0.0876879  
C53      C      0.461960000000     0.201370000000     0.230210000000    -0.038594   
C54      C      0.462370000000     0.230600000000     0.200850000000    -0.0233458  
C55      C      0.485350000000     0.205420000000     0.264460000000    -0.00066591 
C56      C      0.484850000000     0.184820000000     0.335930000000    -0.0908421  
C57      C      0.486170000000     0.264560000000     0.205080000000    -0.0262119  
C58      C      0.486050000000     0.286180000000     0.133900000000    -0.125716   
C59      C      0.509670000000     0.268520000000     0.239260000000    -0.022864   
C60      C      0.486000000000     0.316130000000     0.105330000000     0.0938486  
C61      C      0.486150000000     0.365380000000     0.155550000000     0.411495   
C62      C      0.509260000000     0.239300000000     0.268600000000    -0.0379485  
C63      C      0.484830000000     0.174430000000     0.295760000000     0.0505675  
C64      C      0.486200000000     0.295940000000     0.174170000000     0.108475   
C65      C      0.484020000000     0.635400000000     0.184540000000    -0.2178     
C66      C      0.485950000000     0.866230000000     0.315150000000     0.0734809  
C67      C      0.485430000000     0.816280000000     0.364560000000     0.0730323  
C68      C      0.485780000000     0.837490000000     0.285370000000    -0.0903103  
C69      C      0.508250000000     0.770200000000     0.229810000000    -0.038982   
C70      C      0.507910000000     0.740910000000     0.200500000000    -0.0235028  
C71      C      0.484810000000     0.766190000000     0.264030000000    -0.00140482 
C72      C      0.485210000000     0.786790000000     0.335510000000    -0.0915605  
C73      C      0.484130000000     0.706940000000     0.204740000000    -0.0264513  
C74      C      0.484480000000     0.685140000000     0.133600000000    -0.12577    
C75      C      0.460550000000     0.703050000000     0.238870000000    -0.0233243  
C76      C      0.484590000000     0.655130000000     0.105090000000     0.0933858  
C77      C      0.484190000000     0.605990000000     0.155400000000     0.411076   
C78      C      0.460890000000     0.732320000000     0.268170000000    -0.0387285  
C79      C      0.485310000000     0.797200000000     0.295340000000     0.0493707  
C80      C      0.484180000000     0.675480000000     0.173890000000     0.108062   
C81      C      0.487020000000     0.685040000000     0.835570000000    -0.218376   
C82      C      0.483610000000     0.815800000000     0.604830000000     0.0729802  
C83      C      0.484160000000     0.865330000000     0.654640000000     0.0731033  
C84      C      0.483960000000     0.786040000000     0.633610000000    -0.0916731  
C85      C      0.462030000000     0.730370000000     0.700950000000    -0.0394398  
C86      C      0.462650000000     0.701010000000     0.730200000000    -0.0240914  
C87      C      0.485260000000     0.764770000000     0.704890000000    -0.00176568 
C88      C      0.484570000000     0.836300000000     0.684170000000    -0.0913381  
C89      C      0.486490000000     0.705370000000     0.764090000000    -0.0269131  
C90      C      0.486550000000     0.634120000000     0.785830000000    -0.126908   
C91      C      0.509850000000     0.739690000000     0.767930000000    -0.0234214  
C92      C      0.486620000000     0.605560000000     0.815800000000     0.0928318  
C93      C      0.487040000000     0.655850000000     0.864950000000     0.410403   
C94      C      0.509230000000     0.769030000000     0.738700000000    -0.0388073  
C95      C      0.484550000000     0.796070000000     0.673850000000     0.0492846  
C96      C      0.486740000000     0.674440000000     0.795510000000     0.107756   
C97      C      0.484330000000     0.285990000000     0.835660000000    -0.218635   
C98      C      0.486380000000     0.155480000000     0.604790000000     0.0726701  
C99      C      0.485800000000     0.105940000000     0.654600000000     0.0726706  
C100     C      0.486400000000     0.185230000000     0.633580000000    -0.0919141  
C101     C      0.509160000000     0.202210000000     0.739260000000    -0.0389586  
C102     C      0.508910000000     0.231480000000     0.768550000000    -0.0236095  
C103     C      0.486030000000     0.206460000000     0.704870000000    -0.00196058 
C104     C      0.485860000000     0.134950000000     0.684130000000    -0.0917425  
C105     C      0.485510000000     0.265710000000     0.764190000000    -0.0270292  
C106     C      0.485050000000     0.336930000000     0.785920000000    -0.127      
C107     C      0.462500000000     0.270050000000     0.729730000000    -0.0241094  
C108     C      0.484770000000     0.365480000000     0.815890000000     0.0931736  
C109     C      0.484010000000     0.315180000000     0.865040000000     0.410737   
C110     C      0.462750000000     0.240760000000     0.700410000000    -0.039498   
C111     C      0.486110000000     0.175170000000     0.673820000000     0.0491413  
C112     C      0.484960000000     0.296610000000     0.795610000000     0.107934   
C113     C      0.786160000000     0.334860000000     0.485860000000    -0.214833   
C114     C      0.655380000000     0.103940000000     0.486790000000     0.073611   
C115     C      0.606160000000     0.154080000000     0.486780000000     0.0734109  
C116     C      0.685290000000     0.132590000000     0.487030000000    -0.0901303  
C117     C      0.741160000000     0.199500000000     0.464000000000    -0.037638   
C118     C      0.770440000000     0.228850000000     0.463820000000    -0.023086   
C119     C      0.706900000000     0.203870000000     0.487330000000    -0.00127072 
C120     C      0.635330000000     0.183460000000     0.487060000000    -0.0912641  
C121     C      0.766140000000     0.263250000000     0.486960000000    -0.0242492  
C122     C      0.837270000000     0.285300000000     0.486130000000    -0.120024   
C123     C      0.732010000000     0.267470000000     0.510500000000    -0.0232095  
C124     C      0.865700000000     0.315410000000     0.485740000000     0.0979261  
C125     C      0.815210000000     0.364380000000     0.485410000000     0.414826   
C126     C      0.702750000000     0.238150000000     0.510680000000    -0.0378165  
C127     C      0.675480000000     0.172920000000     0.487160000000     0.0498419  
C128     C      0.796930000000     0.294820000000     0.486320000000     0.108682   
C129     C      0.683430000000     0.834720000000     0.484280000000    -0.21923    
C130     C      0.814760000000     0.604380000000     0.486790000000     0.0748006  
C131     C      0.863960000000     0.654540000000     0.486140000000     0.0736995  
C132     C      0.784840000000     0.632980000000     0.486820000000    -0.0877177  
C133     C      0.728870000000     0.699500000000     0.463220000000    -0.0394571  
C134     C      0.699450000000     0.728700000000     0.462940000000    -0.0230315  
C135     C      0.763160000000     0.704170000000     0.486450000000    -0.000616249
C136     C      0.834770000000     0.683900000000     0.486200000000    -0.0907289  
C137     C      0.703650000000     0.763240000000     0.485870000000    -0.0272768  
C138     C      0.632440000000     0.785020000000     0.485160000000    -0.127008   
C139     C      0.737830000000     0.767770000000     0.509290000000    -0.0231139  
C140     C      0.603930000000     0.815060000000     0.484720000000     0.0930079  
C141     C      0.654300000000     0.864140000000     0.483800000000     0.40983    
C142     C      0.767220000000     0.738600000000     0.509570000000    -0.0391656  
C143     C      0.794630000000     0.673320000000     0.486500000000     0.049258   
C144     C      0.672760000000     0.794660000000     0.485100000000     0.108058   
C145     C      0.286020000000     0.135850000000     0.483700000000    -0.216177   
C146     C      0.155100000000     0.366350000000     0.485490000000     0.0745889  
C147     C      0.105760000000     0.316320000000     0.485780000000     0.0770964  
C148     C      0.184940000000     0.337670000000     0.485190000000    -0.0906294  
C149     C      0.202160000000     0.232490000000     0.460680000000    -0.0378791  
C150     C      0.231530000000     0.203300000000     0.460220000000    -0.0217466  
C151     C      0.206390000000     0.266450000000     0.484450000000     0.000125691
C152     C      0.134870000000     0.286880000000     0.485420000000    -0.085554   
C153     C      0.265830000000     0.207350000000     0.483540000000    -0.0260597  
C154     C      0.337000000000     0.185570000000     0.483590000000    -0.126626   
C155     C      0.270170000000     0.241420000000     0.507160000000    -0.0229309  
C156     C      0.365500000000     0.155550000000     0.483720000000     0.0942634  
C157     C      0.315140000000     0.106430000000     0.483870000000     0.414183   
C158     C      0.240790000000     0.270630000000     0.507610000000    -0.0388749  
C159     C      0.175030000000     0.297370000000     0.485070000000     0.050001   
C160     C      0.296690000000     0.175910000000     0.483560000000     0.109201   
C161     C      0.284700000000     0.836760000000     0.486010000000    -0.216055   
C162     C      0.154280000000     0.605820000000     0.483370000000     0.0732352  
C163     C      0.104590000000     0.655510000000     0.483550000000     0.0734402  
C164     C      0.183910000000     0.634710000000     0.483530000000    -0.0920681  
C165     C      0.239200000000     0.702140000000     0.461050000000    -0.0391427  
C166     C      0.268510000000     0.731420000000     0.461590000000    -0.0243137  
C167     C      0.204880000000     0.706070000000     0.484370000000    -0.00205537 
C168     C      0.133490000000     0.685150000000     0.483770000000    -0.0916409  
C169     C      0.264170000000     0.765320000000     0.485450000000    -0.0262727  
C170     C      0.335400000000     0.786760000000     0.485720000000    -0.126772   
C171     C      0.229890000000     0.769200000000     0.508830000000    -0.0235069  
C172     C      0.364060000000     0.816610000000     0.485870000000     0.0938883  
C173     C      0.314000000000     0.866030000000     0.486100000000     0.41352    
C174     C      0.200590000000     0.739930000000     0.508290000000    -0.0382497  
C175     C      0.173720000000     0.674940000000     0.483830000000     0.0496393  
C176     C      0.295150000000     0.796640000000     0.485770000000     0.108282   
C177     C      0.784890000000     0.482400000000     0.336400000000    -0.215225   
C178     C      0.654830000000     0.483140000000     0.105190000000     0.0760246  
C179     C      0.605160000000     0.483290000000     0.154860000000     0.0770051  
C180     C      0.684470000000     0.482700000000     0.134070000000    -0.0871941  
C181     C      0.739760000000     0.505600000000     0.201330000000    -0.0378586  
C182     C      0.768970000000     0.505500000000     0.230710000000    -0.0229833  
C183     C      0.705470000000     0.482260000000     0.205430000000     0.00064486 
C184     C      0.634070000000     0.482800000000     0.184480000000    -0.0851093  
C185     C      0.764570000000     0.482060000000     0.264880000000    -0.0247616  
C186     C      0.835740000000     0.482460000000     0.286590000000    -0.122281   
C187     C      0.730340000000     0.458620000000     0.268910000000    -0.0221581  
C188     C      0.864320000000     0.482850000000     0.316500000000     0.0963423  
C189     C      0.814120000000     0.482830000000     0.365740000000     0.414757   
C190     C      0.701130000000     0.458730000000     0.239540000000    -0.0373243  
C191     C      0.674300000000     0.482560000000     0.174290000000     0.0499569  
C192     C      0.795450000000     0.482250000000     0.296320000000     0.108857   
C193     C      0.133910000000     0.487370000000     0.285080000000    -0.215928   
C194     C      0.365240000000     0.487330000000     0.154720000000     0.0757799  
C195     C      0.315570000000     0.487410000000     0.105080000000     0.0738261  
C196     C      0.336340000000     0.487510000000     0.184380000000    -0.0856999  
C197     C      0.269110000000     0.510630000000     0.239790000000    -0.0389299  
C198     C      0.239730000000     0.510540000000     0.269030000000    -0.0227524  
C199     C      0.264900000000     0.487430000000     0.205410000000     4.38942e-06
C200     C      0.285930000000     0.487540000000     0.133990000000    -0.0900902  
C201     C      0.205430000000     0.487270000000     0.264590000000    -0.0259962  
C202     C      0.183790000000     0.487240000000     0.335840000000    -0.126192   
C203     C      0.201290000000     0.463990000000     0.230260000000    -0.0226324  
C204     C      0.153890000000     0.487040000000     0.364460000000     0.0940517  
C205     C      0.104590000000     0.487210000000     0.314340000000     0.413466   
C206     C      0.230650000000     0.464080000000     0.201040000000    -0.0382336  
C207     C      0.296100000000     0.487540000000     0.174230000000     0.0492555  
C208     C      0.174020000000     0.487310000000     0.295560000000     0.108484   
C209     C      0.135610000000     0.483830000000     0.683930000000    -0.217406   
C210     C      0.366090000000     0.484050000000     0.815160000000     0.0724192  
C211     C      0.316040000000     0.484180000000     0.864430000000     0.0726631  
C212     C      0.337440000000     0.483700000000     0.785290000000    -0.0919449  
C213     C      0.270630000000     0.506430000000     0.729310000000    -0.039442   
C214     C      0.241430000000     0.506330000000     0.699900000000    -0.0243579  
C215     C      0.266230000000     0.483240000000     0.763670000000    -0.00206785 
C216     C      0.286630000000     0.483790000000     0.835280000000    -0.0916168  
C217     C      0.207130000000     0.483050000000     0.704150000000    -0.0265443  
C218     C      0.185250000000     0.483760000000     0.632940000000    -0.126427   
C219     C      0.202860000000     0.459670000000     0.738390000000    -0.0235439  
C220     C      0.155200000000     0.484220000000     0.604440000000     0.0931418  
C221     C      0.106160000000     0.484330000000     0.654830000000     0.411032   
C222     C      0.232040000000     0.459770000000     0.767790000000    -0.0385897  
C223     C      0.297130000000     0.483570000000     0.795120000000     0.0490162  
C224     C      0.175660000000     0.483500000000     0.673260000000     0.107707   
C225     C      0.836230000000     0.487620000000     0.685320000000    -0.216899   
C226     C      0.605280000000     0.486980000000     0.815690000000     0.0736224  
C227     C      0.655030000000     0.486860000000     0.865280000000     0.0747492  
C228     C      0.634120000000     0.487310000000     0.786010000000    -0.0913928  
C229     C      0.701300000000     0.464290000000     0.730690000000    -0.0382514  
C230     C      0.730610000000     0.464390000000     0.701430000000    -0.0237703  
C231     C      0.705440000000     0.487700000000     0.764920000000    -0.00125229 
C232     C      0.684620000000     0.487240000000     0.836330000000    -0.0889585  
C233     C      0.764750000000     0.487910000000     0.705710000000    -0.0254288  
C234     C      0.786340000000     0.487460000000     0.634530000000    -0.122945   
C235     C      0.768820000000     0.511420000000     0.739880000000    -0.0231663  
C236     C      0.816240000000     0.487130000000     0.605930000000     0.0953781  
C237     C      0.865540000000     0.487250000000     0.656070000000     0.412044   
C238     C      0.739520000000     0.511310000000     0.769140000000    -0.0379768  
C239     C      0.674360000000     0.487430000000     0.796130000000     0.0497745  
C240     C      0.796140000000     0.487710000000     0.674800000000     0.108229   
C241     C      0.786810000000     0.834810000000     0.983780000000    -0.216667   
C242     C      0.655620000000     0.604460000000     0.983870000000     0.0733611  
C243     C      0.606350000000     0.654570000000     0.983870000000     0.074529   
C244     C      0.685500000000     0.633100000000     0.983760000000    -0.0905448  
C245     C      0.741300000000     0.699980000000     0.960640000000    -0.0382969  
C246     C      0.770720000000     0.729170000000     0.960750000000    -0.0223937  
C247     C      0.707070000000     0.704300000000     0.984040000000    -0.00202729 
C248     C      0.635510000000     0.683960000000     0.983810000000    -0.0888638  
C249     C      0.766580000000     0.763340000000     0.984250000000    -0.0272844  
C250     C      0.837790000000     0.785090000000     0.983800000000    -0.125597   
C251     C      0.732460000000     0.767520000000     0.007810000000    -0.0210958  
C252     C      0.866300000000     0.815120000000     0.983800000000     0.0956446  
C253     C      0.815930000000     0.864230000000     0.983740000000     0.418683   
C254     C      0.703060000000     0.738370000000     0.007700000000    -0.0367516  
C255     C      0.675650000000     0.673420000000     0.983810000000     0.0498186  
C256     C      0.797470000000     0.794750000000     0.983930000000     0.110132   
C257     C      0.684300000000     0.334980000000     0.987120000000    -0.218111   
C258     C      0.814810000000     0.103940000000     0.987080000000     0.0730325  
C259     C      0.864120000000     0.154000000000     0.987310000000     0.0726494  
C260     C      0.784950000000     0.132640000000     0.987140000000    -0.0890914  
C261     C      0.729120000000     0.199720000000     0.009980000000    -0.0372202  
C262     C      0.699860000000     0.229090000000     0.009860000000    -0.0214227  
C263     C      0.763500000000     0.203970000000     0.986810000000    -0.00202345 
C264     C      0.835000000000     0.183430000000     0.987320000000    -0.090363   
C265     C      0.704310000000     0.263380000000     0.986580000000    -0.0274342  
C266     C      0.633190000000     0.285400000000     0.986700000000    -0.124208   
C267     C      0.738580000000     0.267480000000     0.963230000000    -0.0225822  
C268     C      0.604760000000     0.315510000000     0.986630000000     0.0952331  
C269     C      0.655240000000     0.364490000000     0.987100000000     0.41177    
C270     C      0.767820000000     0.238140000000     0.963340000000    -0.0383257  
C271     C      0.794840000000     0.172960000000     0.987140000000     0.0493774  
C272     C      0.673530000000     0.294930000000     0.986820000000     0.108833   
C273     C      0.135970000000     0.786760000000     0.985960000000    -0.21819    
C274     C      0.366470000000     0.655810000000     0.986330000000     0.0745072  
C275     C      0.316410000000     0.606500000000     0.986230000000     0.073465   
C276     C      0.337820000000     0.685690000000     0.986310000000    -0.0892389  
C277     C      0.270860000000     0.741530000000     0.009120000000    -0.0367987  
C278     C      0.241630000000     0.770910000000     0.008950000000    -0.0219684  
C279     C      0.266610000000     0.707230000000     0.985800000000    -0.00250024 
C280     C      0.287010000000     0.635660000000     0.986170000000    -0.091289   
C281     C      0.207470000000     0.766650000000     0.985470000000    -0.0272423  
C282     C      0.185580000000     0.837840000000     0.985790000000    -0.123858   
C283     C      0.203360000000     0.732460000000     0.961970000000    -0.023129   
C284     C      0.155510000000     0.866310000000     0.985800000000     0.095464   
C285     C      0.106510000000     0.815840000000     0.986030000000     0.411955   
C286     C      0.232570000000     0.703110000000     0.962140000000    -0.0379938  
C287     C      0.297520000000     0.675830000000     0.986140000000     0.0499528  
C288     C      0.176000000000     0.797490000000     0.985740000000     0.108736   
C289     C      0.134340000000     0.185650000000     0.982860000000    -0.218101   
C290     C      0.365350000000     0.316050000000     0.983270000000     0.0743953  
C291     C      0.315600000000     0.365670000000     0.983220000000     0.0732845  
C292     C      0.336500000000     0.286360000000     0.982900000000    -0.0891181  
C293     C      0.269340000000     0.230980000000     0.005840000000    -0.0370752  
C294     C      0.240010000000     0.201710000000     0.005780000000    -0.0221636  
C295     C      0.265180000000     0.265240000000     0.982460000000    -0.00262207 
C296     C      0.286010000000     0.336710000000     0.982800000000    -0.0914539  
C297     C      0.205830000000     0.206010000000     0.982340000000    -0.0274348  
C298     C      0.184190000000     0.134800000000     0.982760000000    -0.124377   
C299     C      0.201730000000     0.240210000000     0.958860000000    -0.0231525  
C300     C      0.154280000000     0.106200000000     0.983160000000     0.0950493  
C301     C      0.105010000000     0.156400000000     0.983310000000     0.411322   
C302     C      0.231050000000     0.269480000000     0.958920000000    -0.0381041  
C303     C      0.296270000000     0.296480000000     0.982690000000     0.049774   
C304     C      0.174420000000     0.175100000000     0.982610000000     0.108499   
C305     C      0.789220000000     0.967410000000     0.833660000000    -0.213664   
C306     C      0.652490000000     0.973270000000     0.606150000000     0.0717213  
C307     C      0.606300000000     0.998650000000     0.652480000000     0.0720297  
C308     C      0.681900000000     0.972180000000     0.635220000000    -0.0876211  
C309     C      0.745850000000     0.987320000000     0.695130000000    -0.0378118  
C310     C      0.775140000000     0.986080000000     0.724360000000    -0.0239553  
C311     C      0.705350000000     0.985570000000     0.705170000000    -0.000831354
C312     C      0.635450000000     0.999610000000     0.681820000000    -0.0916285  
C313     C      0.765060000000     0.984730000000     0.764840000000    -0.0228784  
C314     C      0.834180000000     0.000380000000     0.789340000000    -0.118131   
C315     C      0.724550000000     0.983890000000     0.774910000000    -0.0235142  
C316     C      0.863260000000     0.998980000000     0.818710000000     0.0950991  
C317     C      0.818390000000     0.968020000000     0.863030000000     0.413257   
C318     C      0.695300000000     0.983470000000     0.745630000000    -0.0375676  
C319     C      0.673930000000     0.985830000000     0.673760000000     0.0486579  
C320     C      0.796470000000     0.984190000000     0.796260000000     0.105009   
C321     C      0.285280000000     0.984980000000     0.634450000000    -0.215076   
C322     C      0.154930000000     0.987220000000     0.865170000000     0.0738686  
C323     C      0.105320000000     0.987230000000     0.815430000000     0.0752301  
C324     C      0.184600000000     0.987020000000     0.836340000000    -0.0905216  
C325     C      0.240020000000     0.009510000000     0.769060000000    -0.0371943  
C326     C      0.269330000000     0.009000000000     0.739800000000    -0.0215812  
C327     C      0.205670000000     0.986240000000     0.765070000000    -0.00194795 
C328     C      0.134260000000     0.986980000000     0.785860000000    -0.0887208  
C329     C      0.264950000000     0.985210000000     0.705870000000    -0.0271103  
C330     C      0.336130000000     0.984970000000     0.684270000000    -0.126639   
C331     C      0.230660000000     0.961850000000     0.701950000000    -0.0219957  
C332     C      0.364710000000     0.984900000000     0.654350000000     0.0950311  
C333     C      0.314490000000     0.984960000000     0.605120000000     0.416326   
C334     C      0.201370000000     0.962360000000     0.731200000000    -0.037554   
C335     C      0.174470000000     0.986800000000     0.796120000000     0.0502127  
C336     C      0.295850000000     0.985010000000     0.674510000000     0.109723   
C337     C      0.185170000000     0.985470000000     0.134510000000    -0.219291   
C338     C      0.315110000000     0.987490000000     0.365530000000     0.0759462  
C339     C      0.364680000000     0.987360000000     0.315740000000     0.0737132  
C340     C      0.285410000000     0.987530000000     0.336720000000    -0.0851084  
C341     C      0.230280000000     0.963660000000     0.269680000000    -0.0389471  
C342     C      0.201100000000     0.963290000000     0.240290000000    -0.0221807  
C343     C      0.264330000000     0.987320000000     0.265430000000    -0.0011727  
C344     C      0.335720000000     0.987450000000     0.286200000000    -0.0900266  
C345     C      0.205320000000     0.986550000000     0.205990000000    -0.0285265  
C346     C      0.134220000000     0.985740000000     0.184230000000    -0.127311   
C347     C      0.239290000000     0.010330000000     0.201820000000    -0.0211958  
C348     C      0.105710000000     0.985370000000     0.154260000000     0.0944166  
C349     C      0.156020000000     0.985050000000     0.105120000000     0.411625   
C350     C      0.268450000000     0.010710000000     0.231200000000    -0.0374067  
C351     C      0.295520000000     0.987470000000     0.296490000000     0.0494619  
C352     C      0.174510000000     0.985910000000     0.174540000000     0.10938    
C353     C      0.636710000000     0.001220000000     0.289100000000    -0.21612    
C354     C      0.818360000000     0.972090000000     0.106750000000     0.0720375  
C355     C      0.864540000000     0.997530000000     0.153070000000     0.0721465  
C356     C      0.789040000000     0.970730000000     0.135880000000    -0.0870227  
C357     C      0.775470000000     0.982220000000     0.246280000000    -0.0383976  
C358     C      0.746130000000     0.983020000000     0.275480000000    -0.0241158  
C359     C      0.765530000000     0.984170000000     0.205780000000    -0.000518012
C360     C      0.835450000000     0.998230000000     0.182480000000    -0.091383   
C361     C      0.705670000000     0.984160000000     0.265260000000    -0.0241513  
C362     C      0.680840000000     0.968210000000     0.334220000000    -0.121258   
C363     C      0.695730000000     0.985150000000     0.224740000000    -0.0229927  
C364     C      0.651310000000     0.969550000000     0.363150000000     0.0934116  
C365     C      0.607190000000     0.000550000000     0.318080000000     0.412802   
C366     C      0.725090000000     0.986020000000     0.195610000000    -0.038173   
C367     C      0.797010000000     0.984350000000     0.174430000000     0.0485164  
C368     C      0.674100000000     0.984470000000     0.296510000000     0.104786   
C369     C      0.987600000000     0.286550000000     0.635560000000    -0.216959   
C370     C      0.986180000000     0.156050000000     0.866290000000     0.0745961  
C371     C      0.986660000000     0.106670000000     0.816310000000     0.0733712  
C372     C      0.986350000000     0.185890000000     0.837590000000    -0.0889001  
C373     C      0.963120000000     0.203050000000     0.732130000000    -0.0377088  
C374     C      0.963210000000     0.232320000000     0.702840000000    -0.0224404  
C375     C      0.986490000000     0.207270000000     0.766350000000    -0.00213177 
C376     C      0.986780000000     0.135760000000     0.786880000000    -0.0903213  
C377     C      0.986690000000     0.266510000000     0.707060000000    -0.0264279  
C378     C      0.987030000000     0.337650000000     0.685140000000    -0.121137   
C379     C      0.009880000000     0.270860000000     0.741390000000    -0.0211146  
C380     C      0.987070000000     0.366100000000     0.655070000000     0.0974794  
C381     C      0.987690000000     0.315620000000     0.606090000000     0.413189   
C382     C      0.009790000000     0.241570000000     0.770710000000    -0.0362975  
C383     C      0.986580000000     0.175940000000     0.797320000000     0.0499795  
C384     C      0.987140000000     0.297310000000     0.675580000000     0.109318   
C385     C      0.983290000000     0.836690000000     0.785150000000    -0.217678   
C386     C      0.984060000000     0.605630000000     0.654550000000     0.0758356  
C387     C      0.983430000000     0.655370000000     0.604940000000     0.0735046  
C388     C      0.983890000000     0.634500000000     0.684220000000    -0.0860494  
C389     C      0.960610000000     0.701500000000     0.739760000000    -0.038318   
C390     C      0.960690000000     0.730810000000     0.769070000000    -0.0222714  
C391     C      0.983650000000     0.705890000000     0.705320000000    -0.00168148 
C392     C      0.983290000000     0.684990000000     0.633880000000    -0.090743   
C393     C      0.983820000000     0.765210000000     0.764610000000    -0.027344   
C394     C      0.984110000000     0.786740000000     0.835870000000    -0.123927   
C395     C      0.006940000000     0.769540000000     0.730210000000    -0.0211384  
C396     C      0.984270000000     0.816630000000     0.864510000000     0.0962481  
C397     C      0.983400000000     0.865990000000     0.814430000000     0.412931   
C398     C      0.006850000000     0.740250000000     0.700920000000    -0.0368519  
C399     C      0.983570000000     0.674760000000     0.674110000000     0.0495755  
C400     C      0.983720000000     0.796560000000     0.795610000000     0.109243   
C401     C      0.986610000000     0.634510000000     0.285220000000    -0.216323   
C402     C      0.987570000000     0.865560000000     0.154590000000     0.0735766  
C403     C      0.987710000000     0.815790000000     0.105020000000     0.0748852  
C404     C      0.987730000000     0.836720000000     0.184280000000    -0.0912062  
C405     C      0.964370000000     0.769670000000     0.239640000000    -0.0389208  
C406     C      0.964180000000     0.740360000000     0.268940000000    -0.0235599  
C407     C      0.987810000000     0.765350000000     0.205460000000    -0.00243854 
C408     C      0.987910000000     0.786190000000     0.133980000000    -0.0885893  
C409     C      0.987430000000     0.706020000000     0.264750000000    -0.0276073  
C410     C      0.986660000000     0.684420000000     0.335970000000    -0.126456   
C411     C      0.010980000000     0.701760000000     0.230620000000    -0.0210614  
C412     C      0.986150000000     0.654510000000     0.364600000000     0.0942358  
C413     C      0.986050000000     0.605190000000     0.314480000000     0.413646   
C414     C      0.011160000000     0.731060000000     0.201330000000    -0.0364894  
C415     C      0.987850000000     0.796450000000     0.174200000000     0.0497776  
C416     C      0.986930000000     0.674630000000     0.295710000000     0.108808   
C417     C      0.983340000000     0.285500000000     0.336130000000    -0.217437   
C418     C      0.983770000000     0.155170000000     0.105220000000     0.074842   
C419     C      0.984200000000     0.105510000000     0.154920000000     0.0735447  
C420     C      0.983540000000     0.184840000000     0.134070000000    -0.0891466  
C421     C      0.007340000000     0.201770000000     0.239460000000    -0.036308   
C422     C      0.007300000000     0.231040000000     0.268760000000    -0.0212347  
C423     C      0.983700000000     0.205880000000     0.205400000000    -0.00244328 
C424     C      0.984020000000     0.134440000000     0.184520000000    -0.0915723  
C425     C      0.983640000000     0.265110000000     0.264700000000    -0.0269309  
C426     C      0.983300000000     0.336340000000     0.286280000000    -0.122988   
C427     C      0.960100000000     0.269290000000     0.230580000000    -0.0226805  
C428     C      0.983360000000     0.364950000000     0.316190000000     0.0958474  
C429     C      0.983340000000     0.314740000000     0.365440000000     0.412595   
C430     C      0.960120000000     0.240010000000     0.201280000000    -0.0378522  
C431     C      0.983720000000     0.174680000000     0.174290000000     0.0502511  
C432     C      0.983410000000     0.296050000000     0.296060000000     0.109147   
F1       F      0.486060000000     0.403690000000     0.168090000000    -0.452478   
F2       F      0.484180000000     0.567710000000     0.168020000000    -0.452745   
F3       F      0.487150000000     0.668450000000     0.903220000000    -0.459206   
F4       F      0.483220000000     0.302590000000     0.903300000000    -0.459263   
F5       F      0.802470000000     0.402620000000     0.484780000000    -0.440267   
F6       F      0.666980000000     0.902390000000     0.482810000000    -0.46059    
F7       F      0.302490000000     0.068160000000     0.484170000000    -0.435095   
F8       F      0.301600000000     0.904380000000     0.486180000000    -0.434881   
F9       F      0.801610000000     0.483130000000     0.404030000000    -0.440364   
F10      F      0.066270000000     0.487480000000     0.301880000000    -0.439627   
F11      F      0.067920000000     0.484780000000     0.667520000000    -0.451937   
F12      F      0.903850000000     0.487010000000     0.668540000000    -0.452213   
F13      F      0.803260000000     0.902490000000     0.983480000000    -0.4354     
F14      F      0.667980000000     0.402730000000     0.987590000000    -0.458692   
F15      F      0.068280000000     0.803100000000     0.986410000000    -0.458331   
F16      F      0.066700000000     0.168900000000     0.983690000000    -0.458556   
F17      F      0.809650000000     0.950650000000     0.898340000000    -0.432641   
F18      F      0.301960000000     0.985090000000     0.566830000000    -0.424034   
F19      F      0.168610000000     0.984450000000     0.066860000000    -0.458931   
F20      F      0.571950000000     0.017960000000     0.309170000000    -0.461022   
F21      F      0.988320000000     0.302890000000     0.567880000000    -0.451757   
F22      F      0.982810000000     0.904320000000     0.801990000000    -0.457163   
F23      F      0.985630000000     0.566860000000     0.302010000000    -0.440421   
F24      F      0.983090000000     0.302220000000     0.403730000000    -0.45197    
H1       H      0.929420000000     0.928220000000     0.042040000000     0.212798   
H2       H      0.042180000000     0.042610000000     0.041820000000     0.214877   
H3       H      0.928100000000     0.042180000000     0.928870000000     0.211488   
H4       H      0.042270000000     0.929300000000     0.928050000000     0.214029   
H5       H      0.927730000000     0.541810000000     0.428590000000     0.214467   
H6       H      0.041640000000     0.428690000000     0.428360000000     0.214511   
H7       H      0.928760000000     0.428630000000     0.542540000000     0.216952   
H8       H      0.041860000000     0.542620000000     0.541450000000     0.212264   
H9       H      0.427830000000     0.929090000000     0.428240000000     0.213167   
H10      H      0.541890000000     0.042050000000     0.428590000000     0.216701   
H11      H      0.541030000000     0.928370000000     0.541910000000     0.212261   
H12      H      0.428260000000     0.042670000000     0.541790000000     0.21494    
H13      H      0.542040000000     0.428540000000     0.928560000000     0.214144   
H14      H      0.428320000000     0.428970000000     0.041880000000     0.212556   
H15      H      0.428920000000     0.542490000000     0.928440000000     0.211916   
H16      H      0.542350000000     0.542100000000     0.042070000000     0.213227   
H17      H      0.484480000000     0.164860000000     0.395640000000     0.0252994  
H18      H      0.486010000000     0.306870000000     0.074570000000     0.0253771  
H19      H      0.528130000000     0.243010000000     0.294300000000     0.0428643  
H20      H      0.443480000000     0.226930000000     0.175170000000     0.0372273  
H21      H      0.486470000000     0.255510000000     0.124380000000     0.0644786  
H22      H      0.442780000000     0.175910000000     0.226370000000     0.0417758  
H23      H      0.485820000000     0.344840000000     0.215620000000     0.117139   
H24      H      0.484620000000     0.215620000000     0.345010000000     0.0546481  
H25      H      0.484880000000     0.124770000000     0.255060000000     0.0594495  
H26      H      0.528820000000     0.294000000000     0.243130000000     0.0418001  
H27      H      0.484040000000     0.074630000000     0.306220000000     0.0436605  
H28      H      0.485400000000     0.806700000000     0.395220000000     0.0249385  
H29      H      0.484700000000     0.664330000000     0.074300000000     0.0252904  
H30      H      0.441970000000     0.728640000000     0.293840000000     0.0409963  
H31      H      0.526860000000     0.744540000000     0.174850000000     0.0373792  
H32      H      0.484140000000     0.715790000000     0.124000000000     0.0641121  
H33      H      0.527430000000     0.795660000000     0.225970000000     0.0422855  
H34      H      0.484340000000     0.626660000000     0.215430000000     0.116873   
H35      H      0.485410000000     0.755990000000     0.344570000000     0.0540621  
H36      H      0.485400000000     0.846890000000     0.254680000000     0.0559499  
H37      H      0.441400000000     0.677560000000     0.242750000000     0.0405851  
H38      H      0.486090000000     0.897010000000     0.305890000000     0.0317274  
H39      H      0.484150000000     0.896030000000     0.664150000000     0.0254517  
H40      H      0.486570000000     0.574760000000     0.806580000000     0.0197459  
H41      H      0.528000000000     0.794830000000     0.742340000000     0.0417106  
H42      H      0.443850000000     0.675220000000     0.726590000000     0.0355619  
H43      H      0.486820000000     0.624540000000     0.755190000000     0.0615937  
H44      H      0.442810000000     0.726400000000     0.675550000000     0.0403739  
H45      H      0.486630000000     0.715940000000     0.844350000000     0.115585   
H46      H      0.484460000000     0.845420000000     0.714950000000     0.0544881  
H47      H      0.484400000000     0.755320000000     0.624250000000     0.0532059  
H48      H      0.529040000000     0.743680000000     0.793350000000     0.0408744  
H49      H      0.483380000000     0.806470000000     0.574080000000     0.0249727  
H50      H      0.485450000000     0.075230000000     0.664100000000     0.0250849  
H51      H      0.485100000000     0.396280000000     0.806680000000     0.0198364  
H52      H      0.444150000000     0.244690000000     0.674560000000     0.0402154  
H53      H      0.527490000000     0.227520000000     0.794430000000     0.0402705  
H54      H      0.485940000000     0.346510000000     0.755300000000     0.0616726  
H55      H      0.527920000000     0.176470000000     0.743310000000     0.0411782  
H56      H      0.483590000000     0.255100000000     0.844410000000     0.115538   
H57      H      0.485150000000     0.125820000000     0.714900000000     0.0540455  
H58      H      0.487130000000     0.215950000000     0.624250000000     0.0531122  
H59      H      0.443720000000     0.295780000000     0.725700000000     0.0360107  
H60      H      0.486700000000     0.164820000000     0.574050000000     0.0248387  
H61      H      0.575530000000     0.163780000000     0.486550000000     0.0252151  
H62      H      0.896520000000     0.306320000000     0.485830000000     0.0471408  
H63      H      0.677060000000     0.242130000000     0.529510000000     0.0415138  
H64      H      0.796110000000     0.224920000000     0.444940000000     0.0411069  
H65      H      0.846970000000     0.254690000000     0.486880000000     0.0707011  
H66      H      0.745030000000     0.173730000000     0.445250000000     0.0429575  
H67      H      0.755230000000     0.343500000000     0.485340000000     0.119236   
H68      H      0.626370000000     0.214300000000     0.486630000000     0.0545591  
H69      H      0.715950000000     0.123070000000     0.487610000000     0.0565575  
H70      H      0.728080000000     0.293280000000     0.529190000000     0.0414657  
H71      H      0.664520000000     0.073120000000     0.486810000000     0.0315351  
H72      H      0.894600000000     0.664240000000     0.485730000000     0.025264   
H73      H      0.573130000000     0.805910000000     0.485060000000     0.0200063  
H74      H      0.792940000000     0.742810000000     0.528320000000     0.0418919  
H75      H      0.673750000000     0.724540000000     0.444150000000     0.0373139  
H76      H      0.622840000000     0.754390000000     0.486160000000     0.0625219  
H77      H      0.725070000000     0.673590000000     0.444640000000     0.0438929  
H78      H      0.714320000000     0.843430000000     0.483520000000     0.115093   
H79      H      0.843690000000     0.714740000000     0.485450000000     0.0541756  
H80      H      0.754190000000     0.623450000000     0.487590000000     0.0589798  
H81      H      0.741680000000     0.793720000000     0.527820000000     0.0400443  
H82      H      0.805630000000     0.573560000000     0.487150000000     0.0426761  
H83      H      0.075100000000     0.306690000000     0.486110000000     0.0523986  
H84      H      0.396300000000     0.164720000000     0.483600000000     0.0200547  
H85      H      0.244710000000     0.296180000000     0.526650000000     0.0412946  
H86      H      0.227560000000     0.177740000000     0.441200000000     0.0429755  
H87      H      0.346600000000     0.216220000000     0.483020000000     0.0621305  
H88      H      0.176350000000     0.228690000000     0.441980000000     0.0453671  
H89      H      0.255120000000     0.127120000000     0.484260000000     0.122143   
H90      H      0.125880000000     0.256060000000     0.485880000000     0.0634244  
H91      H      0.215610000000     0.347120000000     0.484460000000     0.053461   
H92      H      0.295960000000     0.245180000000     0.525900000000     0.0364899  
H93      H      0.164320000000     0.397150000000     0.485380000000     0.0251516  
H94      H      0.073870000000     0.664920000000     0.483460000000     0.025663   
H95      H      0.394800000000     0.807250000000     0.485920000000     0.0198471  
H96      H      0.174830000000     0.743560000000     0.527080000000     0.0418905  
H97      H      0.294260000000     0.727810000000     0.442780000000     0.0360189  
H98      H      0.344840000000     0.756070000000     0.486050000000     0.0616908  
H99      H      0.243150000000     0.676700000000     0.441870000000     0.0405106  
H100     H      0.253850000000     0.845660000000     0.485530000000     0.120472   
H101     H      0.124280000000     0.715920000000     0.483460000000     0.0550123  
H102     H      0.214650000000     0.625470000000     0.484040000000     0.0530208  
H103     H      0.225930000000     0.794640000000     0.528010000000     0.0431208  
H104     H      0.163710000000     0.575090000000     0.483350000000     0.0247851  
H105     H      0.574440000000     0.483630000000     0.164280000000     0.0516877  
H106     H      0.895080000000     0.482890000000     0.307220000000     0.0378947  
H107     H      0.675380000000     0.439930000000     0.243330000000     0.0458096  
H108     H      0.794680000000     0.524360000000     0.226950000000     0.040122   
H109     H      0.845290000000     0.481840000000     0.255950000000     0.0685386  
H110     H      0.743750000000     0.524510000000     0.175700000000     0.0429716  
H111     H      0.754010000000     0.482780000000     0.345200000000     0.119699   
H112     H      0.624850000000     0.483190000000     0.215220000000     0.0622009  
H113     H      0.715210000000     0.482000000000     0.124830000000     0.0588732  
H114     H      0.726330000000     0.439740000000     0.294570000000     0.044219   
H115     H      0.664250000000     0.483130000000     0.074470000000     0.0400027  
H116     H      0.306140000000     0.487500000000     0.074370000000     0.0258532  
H117     H      0.163200000000     0.486780000000     0.395210000000     0.0201973  
H118     H      0.226760000000     0.445350000000     0.175250000000     0.0425251  
H119     H      0.243600000000     0.529260000000     0.294820000000     0.0371979  
H120     H      0.214450000000     0.486750000000     0.345340000000     0.062421   
H121     H      0.294840000000     0.529400000000     0.243840000000     0.0435944  
H122     H      0.125060000000     0.488040000000     0.254230000000     0.119816   
H123     H      0.255190000000     0.488120000000     0.124760000000     0.0551333  
H124     H      0.345590000000     0.487020000000     0.215110000000     0.0609456  
H125     H      0.175570000000     0.445210000000     0.226200000000     0.0417803  
H126     H      0.395970000000     0.487120000000     0.164130000000     0.0514195  
H127     H      0.306390000000     0.484480000000     0.895070000000     0.0251347  
H128     H      0.164330000000     0.484240000000     0.573640000000     0.0199628  
H129     H      0.228020000000     0.441050000000     0.793560000000     0.0416252  
H130     H      0.245390000000     0.525130000000     0.674170000000     0.0356226  
H131     H      0.215870000000     0.483080000000     0.623300000000     0.0614275  
H132     H      0.296340000000     0.525280000000     0.725440000000     0.0396219  
H133     H      0.126890000000     0.484250000000     0.714830000000     0.117194   
H134     H      0.255810000000     0.484200000000     0.844250000000     0.0543825  
H135     H      0.346940000000     0.483020000000     0.754640000000     0.0526717  
H136     H      0.177120000000     0.440880000000     0.742310000000     0.0412686  
H137     H      0.396880000000     0.484010000000     0.805980000000     0.0246286  
H138     H      0.664500000000     0.486570000000     0.895980000000     0.0376793  
H139     H      0.806930000000     0.487070000000     0.575180000000     0.0373064  
H140     H      0.743320000000     0.530160000000     0.794850000000     0.0424218  
H141     H      0.726840000000     0.445480000000     0.675770000000     0.0392857  
H142     H      0.755690000000     0.488020000000     0.625020000000     0.0673631  
H143     H      0.675690000000     0.445320000000     0.726800000000     0.0413147  
H144     H      0.845070000000     0.487270000000     0.716180000000     0.117446   
H145     H      0.715390000000     0.486830000000     0.845500000000     0.0582462  
H146     H      0.624840000000     0.487970000000     0.755300000000     0.0537189  
H147     H      0.794450000000     0.530360000000     0.743800000000     0.0413626  
H148     H      0.574550000000     0.487020000000     0.806310000000     0.0249706  
H149     H      0.575700000000     0.664240000000     0.983790000000     0.0386481  
H150     H      0.897100000000     0.805970000000     0.983920000000     0.0253184  
H151     H      0.677400000000     0.742280000000     0.026580000000     0.0424188  
H152     H      0.796380000000     0.725300000000     0.941850000000     0.0386075  
H153     H      0.847390000000     0.754450000000     0.984300000000     0.0645065  
H154     H      0.745050000000     0.674350000000     0.941680000000     0.0422451  
H155     H      0.755920000000     0.843550000000     0.983230000000     0.120754   
H156     H      0.626550000000     0.714800000000     0.983310000000     0.0582876  
H157     H      0.716160000000     0.623610000000     0.984230000000     0.0554476  
H158     H      0.728670000000     0.793160000000     0.026760000000     0.0409773  
H159     H      0.664790000000     0.573650000000     0.984010000000     0.0299772  
H160     H      0.894760000000     0.163660000000     0.987500000000     0.0297419  
H161     H      0.573950000000     0.306410000000     0.986310000000     0.032904   
H162     H      0.793600000000     0.242020000000     0.944620000000     0.0424266  
H163     H      0.674070000000     0.225260000000     0.028600000000     0.0384743  
H164     H      0.623500000000     0.254790000000     0.986050000000     0.0663815  
H165     H      0.725120000000     0.174020000000     0.028790000000     0.0429408  
H166     H      0.715210000000     0.343620000000     0.987860000000     0.116242   
H167     H      0.844020000000     0.214250000000     0.987910000000     0.0558436  
H168     H      0.754270000000     0.123190000000     0.986550000000     0.0575607  
H169     H      0.742630000000     0.293200000000     0.944430000000     0.0411574  
H170     H      0.805630000000     0.073140000000     0.986860000000     0.0366353  
H171     H      0.306750000000     0.575840000000     0.986320000000     0.0252388  
H172     H      0.164620000000     0.897140000000     0.985620000000     0.0339603  
H173     H      0.228700000000     0.677390000000     0.943310000000     0.041873   
H174     H      0.245440000000     0.796620000000     0.027800000000     0.0396202  
H175     H      0.216200000000     0.847500000000     0.985220000000     0.0663337  
H176     H      0.296470000000     0.745370000000     0.028080000000     0.0424467  
H177     H      0.127300000000     0.755830000000     0.986570000000     0.116272   
H178     H      0.256190000000     0.626670000000     0.986590000000     0.0547462  
H179     H      0.347300000000     0.716380000000     0.985820000000     0.0575673  
H180     H      0.177730000000     0.728570000000     0.943040000000     0.0409709  
H181     H      0.397260000000     0.665000000000     0.986260000000     0.0378441  
H182     H      0.306150000000     0.396400000000     0.983460000000     0.0250506  
H183     H      0.163570000000     0.075420000000     0.983150000000     0.0327901  
H184     H      0.227230000000     0.295200000000     0.940080000000     0.0417772  
H185     H      0.243810000000     0.176020000000     0.024660000000     0.0388483  
H186     H      0.214840000000     0.125270000000     0.982080000000     0.0659775  
H187     H      0.294970000000     0.227070000000     0.024760000000     0.0417644  
H188     H      0.125530000000     0.216530000000     0.983280000000     0.115855   
H189     H      0.255250000000     0.345890000000     0.983150000000     0.0542947  
H190     H      0.345790000000     0.255620000000     0.982290000000     0.0576635  
H191     H      0.176060000000     0.244150000000     0.939990000000     0.0406981  
H192     H      0.396080000000     0.306660000000     0.983310000000     0.0389917  
H193     H      0.577060000000     0.009560000000     0.660220000000     0.0265915  
H194     H      0.891830000000     0.012070000000     0.811870000000     0.0273049  
H195     H      0.664780000000     0.981180000000     0.755140000000     0.0405592  
H196     H      0.805710000000     0.985890000000     0.714760000000     0.0385233  
H197     H      0.841480000000     0.014790000000     0.761660000000     0.063749   
H198     H      0.755380000000     0.989910000000     0.664660000000     0.0416059  
H199     H      0.761350000000     0.953090000000     0.840430000000     0.119075   
H200     H      0.627570000000     0.011690000000     0.710440000000     0.0545487  
H201     H      0.710460000000     0.960030000000     0.627250000000     0.0572161  
H202     H      0.714960000000     0.983790000000     0.805480000000     0.0411188  
H203     H      0.660160000000     0.962380000000     0.576900000000     0.0404973  
H204     H      0.074600000000     0.987410000000     0.805980000000     0.0385159  
H205     H      0.395480000000     0.984770000000     0.663620000000     0.0202076  
H206     H      0.175580000000     0.943590000000     0.727530000000     0.0445626  
H207     H      0.295100000000     0.027790000000     0.743440000000     0.0374464  
H208     H      0.345650000000     0.984510000000     0.714920000000     0.0626054  
H209     H      0.243980000000     0.028660000000     0.794520000000     0.0420734  
H210     H      0.254410000000     0.985540000000     0.625640000000     0.12355    
H211     H      0.125100000000     0.987360000000     0.755100000000     0.0593285  
H212     H      0.215330000000     0.986420000000     0.845620000000     0.0551885  
H213     H      0.226670000000     0.942720000000     0.676480000000     0.043882   
H214     H      0.164320000000     0.987170000000     0.895900000000     0.0298907  
H215     H      0.395380000000     0.987170000000     0.306250000000     0.028624   
H216     H      0.074930000000     0.985480000000     0.163470000000     0.0206804  
H217     H      0.294020000000     0.029740000000     0.227320000000     0.0423906  
H218     H      0.175560000000     0.944220000000     0.244140000000     0.0378412  
H219     H      0.124620000000     0.986490000000     0.214850000000     0.0635328  
H220     H      0.226480000000     0.944860000000     0.295420000000     0.0445952  
H221     H      0.216070000000     0.984960000000     0.125790000000     0.115579   
H222     H      0.344870000000     0.986910000000     0.255440000000     0.0549516  
H223     H      0.254680000000     0.988070000000     0.346010000000     0.0629948  
H224     H      0.243120000000     0.029090000000     0.176060000000     0.0404224  
H225     H      0.305760000000     0.987620000000     0.396270000000     0.0559574  
H226     H      0.893740000000     0.008550000000     0.160780000000     0.0268125  
H227     H      0.657990000000     0.956490000000     0.391760000000     0.0391591  
H228     H      0.715640000000     0.988480000000     0.165100000000     0.0425115  
H229     H      0.755600000000     0.983060000000     0.306090000000     0.0370489  
H230     H      0.708530000000     0.953860000000     0.341620000000     0.065968   
H231     H      0.805960000000     0.979830000000     0.255870000000     0.0396644  
H232     H      0.630070000000     0.015620000000     0.261240000000     0.115176   
H233     H      0.843320000000     0.010240000000     0.211130000000     0.0547249  
H234     H      0.760530000000     0.958450000000     0.127930000000     0.0580449  
H235     H      0.665180000000     0.985050000000     0.215040000000     0.0397977  
H236     H      0.810670000000     0.961260000000     0.077480000000     0.0436662  
H237     H      0.986910000000     0.075990000000     0.806700000000     0.0305067  
H238     H      0.986720000000     0.396930000000     0.664170000000     0.0467792  
H239     H      0.028540000000     0.245480000000     0.796470000000     0.0441953  
H240     H      0.944480000000     0.228370000000     0.677080000000     0.042114   
H241     H      0.986280000000     0.347330000000     0.715730000000     0.0705592  
H242     H      0.944310000000     0.177330000000     0.728180000000     0.042348   
H243     H      0.988370000000     0.255620000000     0.626920000000     0.118191   
H244     H      0.987510000000     0.126730000000     0.756080000000     0.056738   
H245     H      0.985710000000     0.216590000000     0.847010000000     0.0579003  
H246     H      0.028710000000     0.296580000000     0.745300000000     0.0405844  
H247     H      0.985830000000     0.165280000000     0.897060000000     0.0388979  
H248     H      0.983110000000     0.664820000000     0.574240000000     0.0250594  
H249     H      0.984780000000     0.807300000000     0.895250000000     0.0332005  
H250     H      0.025450000000     0.744260000000     0.675070000000     0.0420463  
H251     H      0.942110000000     0.726810000000     0.794930000000     0.0387849  
H252     H      0.984900000000     0.756060000000     0.845330000000     0.0669438  
H253     H      0.941960000000     0.675680000000     0.743820000000     0.0442495  
H254     H      0.982370000000     0.845560000000     0.754310000000     0.116341   
H255     H      0.982510000000     0.715750000000     0.624690000000     0.0540909  
H256     H      0.984600000000     0.625220000000     0.714940000000     0.0615499  
H257     H      0.025590000000     0.795360000000     0.726140000000     0.0411171  
H258     H      0.984480000000     0.574890000000     0.663940000000     0.0514584  
H259     H      0.987570000000     0.806320000000     0.074320000000     0.0394126  
H260     H      0.986110000000     0.663830000000     0.395350000000     0.0203397  
H261     H      0.030050000000     0.727090000000     0.175690000000     0.0451042  
H262     H      0.945260000000     0.744310000000     0.294560000000     0.0365754  
H263     H      0.987360000000     0.715090000000     0.345470000000     0.062596   
H264     H      0.945580000000     0.795430000000     0.243480000000     0.0406715  
H265     H      0.986250000000     0.625660000000     0.254360000000     0.119445   
H266     H      0.987520000000     0.755410000000     0.124820000000     0.0585694  
H267     H      0.988240000000     0.846030000000     0.214990000000     0.0538001  
H268     H      0.029720000000     0.675970000000     0.226760000000     0.0438648  
H269     H      0.987570000000     0.896310000000     0.163960000000     0.0252867  
H270     H      0.984330000000     0.074780000000     0.164350000000     0.0251404  
H271     H      0.983500000000     0.395720000000     0.306910000000     0.0376818  
H272     H      0.941140000000     0.243810000000     0.175670000000     0.0426579  
H273     H      0.026270000000     0.227210000000     0.294370000000     0.0419603  
H274     H      0.983780000000     0.345860000000     0.255620000000     0.0685054  
H275     H      0.026350000000     0.176170000000     0.243250000000     0.0426303  
H276     H      0.982800000000     0.254610000000     0.344940000000     0.117373   
H277     H      0.983620000000     0.125240000000     0.215270000000     0.0544469  
H278     H      0.983810000000     0.215590000000     0.124820000000     0.0585165  
H279     H      0.941100000000     0.294910000000     0.226820000000     0.039304   
H280     H      0.983800000000     0.164580000000     0.074500000000     0.0382293  
N1       N      0.486010000000     0.355580000000     0.115820000000    -0.240389   
N2       N      0.484280000000     0.115800000000     0.354920000000    -0.189859   
N3       N      0.484490000000     0.615700000000     0.115650000000    -0.240414   
N4       N      0.485690000000     0.855810000000     0.354550000000    -0.191498   
N5       N      0.486780000000     0.616080000000     0.855220000000    -0.241101   
N6       N      0.483810000000     0.855250000000     0.615160000000    -0.191853   
N7       N      0.484380000000     0.354950000000     0.855310000000    -0.241145   
N8       N      0.486010000000     0.116030000000     0.615120000000    -0.192072   
N9       N      0.855010000000     0.354810000000     0.485470000000    -0.236699   
N10      N      0.616010000000     0.114510000000     0.486610000000    -0.191178   
N11      N      0.614530000000     0.854470000000     0.484190000000    -0.241451   
N12      N      0.854130000000     0.614970000000     0.486390000000    -0.190109   
N13      N      0.354910000000     0.116130000000     0.483900000000    -0.239909   
N14      N      0.115710000000     0.355860000000     0.485700000000    -0.189074   
N15      N      0.353710000000     0.856100000000     0.485970000000    -0.239892   
N16      N      0.114820000000     0.616040000000     0.483480000000    -0.192078   
N17      N      0.853850000000     0.483110000000     0.355940000000    -0.237969   
N18      N      0.615370000000     0.483500000000     0.115410000000    -0.187457   
N19      N      0.114420000000     0.486940000000     0.354060000000    -0.23952    
N20      N      0.355040000000     0.487210000000     0.115260000000    -0.188876   
N21      N      0.115800000000     0.484500000000     0.615050000000    -0.240376   
N22      N      0.355570000000     0.484320000000     0.854540000000    -0.191863   
N23      N      0.855690000000     0.486970000000     0.616360000000    -0.23897    
N24      N      0.615560000000     0.486710000000     0.855130000000    -0.190733   
N25      N      0.855700000000     0.854540000000     0.983880000000    -0.239056   
N26      N      0.616240000000     0.615020000000     0.984000000000    -0.190237   
N27      N      0.615450000000     0.354910000000     0.986730000000    -0.239726   
N28      N      0.854200000000     0.114450000000     0.987070000000    -0.190473   
N29      N      0.116120000000     0.855640000000     0.985830000000    -0.239623   
N30      N      0.355940000000     0.616410000000     0.986220000000    -0.190766   
N31      N      0.114830000000     0.116650000000     0.983490000000    -0.239673   
N32      N      0.355070000000     0.355510000000     0.983500000000    -0.190616   
N33      N      0.855340000000     0.983570000000     0.855520000000    -0.240049   
N34      N      0.614820000000     0.985950000000     0.614800000000    -0.19137    
N35      N      0.354230000000     0.984960000000     0.614930000000    -0.239235   
N36      N      0.115490000000     0.987230000000     0.854890000000    -0.190275   
N37      N      0.116270000000     0.985130000000     0.114850000000    -0.24138    
N38      N      0.354540000000     0.987320000000     0.355210000000    -0.188669   
N39      N      0.614540000000     0.985010000000     0.355060000000    -0.242502   
N40      N      0.855960000000     0.984990000000     0.115340000000    -0.191006   
N41      N      0.987250000000     0.355420000000     0.615690000000    -0.23804    
N42      N      0.986290000000     0.116640000000     0.855810000000    -0.190254   
N43      N      0.983990000000     0.856110000000     0.854130000000    -0.239316   
N44      N      0.983880000000     0.615880000000     0.615100000000    -0.189139   
N45      N      0.985830000000     0.615040000000     0.354200000000    -0.239852   
N46      N      0.987470000000     0.855280000000     0.115150000000    -0.190279   
N47      N      0.983470000000     0.354480000000     0.355620000000    -0.239021   
N48      N      0.984150000000     0.115700000000     0.115470000000    -0.190761   
O1       O      0.984370000000     0.097970000000     0.049920000000    -0.366328   
O2       O      0.986850000000     0.873030000000     0.049510000000    -0.363774   
O3       O      0.921350000000     0.987520000000     0.097590000000    -0.375299   
O4       O      0.050530000000     0.985190000000     0.097310000000    -0.379758   
O5       O      0.098010000000     0.985420000000     0.049290000000    -0.336189   
O6       O      0.873470000000     0.982900000000     0.049920000000    -0.364883   
O7       O      0.986590000000     0.920890000000     0.097390000000    -0.375405   
O8       O      0.985150000000     0.050070000000     0.097700000000    -0.374451   
O9       O      0.025800000000     0.945570000000     0.024960000000    -0.507171   
O10      O      0.945190000000     0.025240000000     0.025450000000    -0.510288   
O11      O      0.945760000000     0.944910000000     0.025500000000    -0.657743   
O12      O      0.025680000000     0.026000000000     0.025350000000    -0.655067   
O13      O      0.985010000000     0.873480000000     0.919960000000    -0.36917    
O14      O      0.985380000000     0.098480000000     0.921250000000    -0.366325   
O15      O      0.873680000000     0.920170000000     0.984550000000    -0.32265    
O16      O      0.098200000000     0.921380000000     0.985450000000    -0.369507   
O17      O      0.097440000000     0.050820000000     0.984150000000    -0.369953   
O18      O      0.872500000000     0.048970000000     0.986320000000    -0.368759   
O19      O      0.920780000000     0.987020000000     0.872930000000    -0.370533   
O20      O      0.049870000000     0.986870000000     0.872630000000    -0.365449   
O21      O      0.873320000000     0.981930000000     0.920900000000    -0.330295   
O22      O      0.097750000000     0.986770000000     0.920420000000    -0.372896   
O23      O      0.921430000000     0.872420000000     0.984300000000    -0.37601    
O24      O      0.919950000000     0.097240000000     0.986420000000    -0.37245    
O25      O      0.049280000000     0.098220000000     0.984500000000    -0.334622   
O26      O      0.050480000000     0.873550000000     0.985310000000    -0.335875   
O27      O      0.984390000000     0.921680000000     0.872610000000    -0.334275   
O28      O      0.986100000000     0.050900000000     0.873160000000    -0.371122   
O29      O      0.025310000000     0.026150000000     0.945170000000    -0.509852   
O30      O      0.945660000000     0.945340000000     0.944860000000    -0.509797   
O31      O      0.944820000000     0.025690000000     0.945240000000    -0.659215   
O32      O      0.025730000000     0.945700000000     0.944690000000    -0.657328   
O33      O      0.984270000000     0.372850000000     0.421150000000    -0.33308    
O34      O      0.985220000000     0.597650000000     0.420020000000    -0.379512   
O35      O      0.919650000000     0.484060000000     0.373320000000    -0.367126   
O36      O      0.048860000000     0.485970000000     0.372550000000    -0.325681   
O37      O      0.097040000000     0.486450000000     0.419890000000    -0.379239   
O38      O      0.872300000000     0.484050000000     0.421480000000    -0.326075   
O39      O      0.985010000000     0.549470000000     0.372650000000    -0.326908   
O40      O      0.983900000000     0.420310000000     0.373080000000    -0.367761   
O41      O      0.024670000000     0.525510000000     0.444790000000    -0.508403   
O42      O      0.944740000000     0.445020000000     0.445540000000    -0.514886   
O43      O      0.944410000000     0.525430000000     0.445100000000    -0.660241   
O44      O      0.025160000000     0.445210000000     0.444940000000    -0.659691   
O45      O      0.984160000000     0.598110000000     0.549480000000    -0.374608   
O46      O      0.986470000000     0.373360000000     0.550060000000    -0.333011   
O47      O      0.872370000000     0.549530000000     0.486250000000    -0.363567   
O48      O      0.097170000000     0.550430000000     0.483910000000    -0.376163   
O49      O      0.097620000000     0.421340000000     0.485330000000    -0.375284   
O50      O      0.872970000000     0.420520000000     0.485580000000    -0.3259     
O51      O      0.921220000000     0.486340000000     0.597890000000    -0.332853   
O52      O      0.050150000000     0.485150000000     0.597080000000    -0.332715   
O53      O      0.873050000000     0.486110000000     0.550560000000    -0.367994   
O54      O      0.097900000000     0.485180000000     0.549310000000    -0.379066   
O55      O      0.919910000000     0.597710000000     0.485660000000    -0.374604   
O56      O      0.920720000000     0.372730000000     0.485400000000    -0.359286   
O57      O      0.049990000000     0.373250000000     0.485750000000    -0.354697   
O58      O      0.049220000000     0.598200000000     0.484010000000    -0.374491   
O59      O      0.984750000000     0.550280000000     0.597360000000    -0.356755   
O60      O      0.986490000000     0.421130000000     0.597810000000    -0.36046    
O61      O      0.025530000000     0.445580000000     0.525160000000    -0.511665   
O62      O      0.945090000000     0.525610000000     0.525390000000    -0.513211   
O63      O      0.945140000000     0.445140000000     0.525850000000    -0.664885   
O64      O      0.025310000000     0.526010000000     0.525020000000    -0.655631   
O65      O      0.596940000000     0.982420000000     0.420480000000    -0.370061   
O66      O      0.372420000000     0.986740000000     0.420720000000    -0.354282   
O67      O      0.485590000000     0.921330000000     0.372590000000    -0.371698   
O68      O      0.484070000000     0.050280000000     0.372820000000    -0.36026    
O69      O      0.484830000000     0.098210000000     0.420580000000    -0.37498    
O70      O      0.485010000000     0.873260000000     0.420230000000    -0.37518    
O71      O      0.420170000000     0.986680000000     0.372810000000    -0.373412   
O72      O      0.549140000000     0.987220000000     0.372830000000    -0.341973   
O73      O      0.444860000000     0.026070000000     0.445010000000    -0.512466   
O74      O      0.524550000000     0.945070000000     0.444780000000    -0.510786   
O75      O      0.444450000000     0.945480000000     0.444800000000    -0.660727   
O76      O      0.525220000000     0.025590000000     0.445020000000    -0.657159   
O77      O      0.372540000000     0.985370000000     0.549400000000    -0.319005   
O78      O      0.597060000000     0.983300000000     0.549450000000    -0.367916   
O79      O      0.419550000000     0.873360000000     0.485570000000    -0.380371   
O80      O      0.420650000000     0.098350000000     0.484410000000    -0.379494   
O81      O      0.550220000000     0.097360000000     0.485960000000    -0.37494    
O82      O      0.548790000000     0.872350000000     0.484500000000    -0.380282   
O83      O      0.484320000000     0.920960000000     0.597530000000    -0.375112   
O84      O      0.485240000000     0.050350000000     0.597490000000    -0.374396   
O85      O      0.483710000000     0.873120000000     0.549630000000    -0.375269   
O86      O      0.485860000000     0.098150000000     0.549600000000    -0.376264   
O87      O      0.372270000000     0.921620000000     0.485660000000    -0.324541   
O88      O      0.596550000000     0.920110000000     0.484370000000    -0.3366     
O89      O      0.597640000000     0.049040000000     0.485890000000    -0.371514   
O90      O      0.372960000000     0.050500000000     0.484410000000    -0.324326   
O91      O      0.420020000000     0.985220000000     0.597430000000    -0.379942   
O92      O      0.549350000000     0.988050000000     0.597270000000    -0.375623   
O93      O      0.525060000000     0.025330000000     0.525060000000    -0.50822    
O94      O      0.444610000000     0.945580000000     0.525170000000    -0.510751   
O95      O      0.524600000000     0.944980000000     0.525380000000    -0.655591   
O96      O      0.444780000000     0.026090000000     0.525320000000    -0.658433   
O97      O      0.372810000000     0.421170000000     0.984240000000    -0.37516    
O98      O      0.597490000000     0.420610000000     0.986020000000    -0.336058   
O99      O      0.484640000000     0.373170000000     0.920890000000    -0.336212   
O100     O      0.485630000000     0.373140000000     0.050050000000    -0.376342   
O101     O      0.485640000000     0.421160000000     0.097540000000    -0.333757   
O102     O      0.484800000000     0.420750000000     0.872920000000    -0.379845   
O103     O      0.549750000000     0.372810000000     0.986160000000    -0.370613   
O104     O      0.420640000000     0.373270000000     0.984430000000    -0.366117   
O105     O      0.525360000000     0.445330000000     0.025430000000    -0.511881   
O106     O      0.445290000000     0.445540000000     0.945180000000    -0.50834    
O107     O      0.525530000000     0.445120000000     0.945040000000    -0.657598   
O108     O      0.444910000000     0.445450000000     0.025360000000    -0.657111   
O109     O      0.598060000000     0.549570000000     0.984600000000    -0.373018   
O110     O      0.373240000000     0.550630000000     0.985660000000    -0.375073   
O111     O      0.550000000000     0.486140000000     0.872890000000    -0.375702   
O112     O      0.549770000000     0.484530000000     0.097620000000    -0.355151   
O113     O      0.420640000000     0.486490000000     0.097500000000    -0.355906   
O114     O      0.421040000000     0.484890000000     0.872670000000    -0.376178   
O115     O      0.486450000000     0.597860000000     0.920810000000    -0.336258   
O116     O      0.485110000000     0.598020000000     0.049910000000    -0.376388   
O117     O      0.486210000000     0.550260000000     0.872860000000    -0.379899   
O118     O      0.484780000000     0.550070000000     0.097480000000    -0.333895   
O119     O      0.597840000000     0.485920000000     0.920730000000    -0.365934   
O120     O      0.372980000000     0.485100000000     0.920300000000    -0.374773   
O121     O      0.372810000000     0.486570000000     0.049640000000    -0.373685   
O122     O      0.597660000000     0.484350000000     0.049830000000    -0.363746   
O123     O      0.550490000000     0.597700000000     0.984580000000    -0.365585   
O124     O      0.421380000000     0.598220000000     0.985890000000    -0.366571   
O125     O      0.445300000000     0.525770000000     0.025190000000    -0.510418   
O126     O      0.525640000000     0.525500000000     0.945160000000    -0.510391   
O127     O      0.445360000000     0.525900000000     0.944990000000    -0.654635   
O128     O      0.525770000000     0.525640000000     0.025520000000    -0.659566   
Zr1      Zr     0.985820000000     0.985540000000     0.065020000000     1.42783    
Zr2      Zr     0.985810000000     0.905590000000     0.984860000000     1.44309    
Zr3      Zr     0.984910000000     0.065420000000     0.985450000000     1.44233    
Zr4      Zr     0.905780000000     0.984750000000     0.985360000000     1.45497    
Zr5      Zr     0.065330000000     0.985940000000     0.984930000000     1.44354    
Zr6      Zr     0.985370000000     0.986120000000     0.905320000000     1.44416    
Zr7      Zr     0.984490000000     0.485070000000     0.405410000000     1.45941    
Zr8      Zr     0.984720000000     0.565470000000     0.484880000000     1.42794    
Zr9      Zr     0.985260000000     0.405570000000     0.485480000000     1.46081    
Zr10     Zr     0.905220000000     0.485190000000     0.485780000000     1.46225    
Zr11     Zr     0.064930000000     0.485760000000     0.484780000000     1.43184    
Zr12     Zr     0.985500000000     0.485660000000     0.564980000000     1.45992    
Zr13     Zr     0.484710000000     0.985780000000     0.405310000000     1.44371    
Zr14     Zr     0.405180000000     0.985910000000     0.485060000000     1.4749     
Zr15     Zr     0.564480000000     0.984750000000     0.485030000000     1.44579    
Zr16     Zr     0.484390000000     0.905480000000     0.485000000000     1.43093    
Zr17     Zr     0.485220000000     0.065570000000     0.485120000000     1.43171    
Zr18     Zr     0.484710000000     0.985670000000     0.565020000000     1.4285     
Zr19     Zr     0.485230000000     0.405630000000     0.985390000000     1.44493    
Zr20     Zr     0.565210000000     0.485240000000     0.985260000000     1.44521    
Zr21     Zr     0.405400000000     0.485780000000     0.985040000000     1.42707    
Zr22     Zr     0.485460000000     0.485520000000     0.905350000000     1.43125    
Zr23     Zr     0.485230000000     0.485580000000     0.064980000000     1.46153    
Zr24     Zr     0.485730000000     0.565410000000     0.985310000000     1.44416    


