data_structure

_audit_creation_method RASPA-1.0
_audit_creation_date 2023-5-19
_audit_author_name 'Poobodin Mano'

_cell_length_a    33.7186
_cell_length_b    33.7146
_cell_length_c    33.7148
_cell_angle_alpha 90
_cell_angle_beta  90
_cell_angle_gamma 90
_cell_volume      38327.3

_symmetry_cell_setting          triclinic
_symmetry_space_group_name_Hall 'P 1'
_symmetry_space_group_name_H-M  'P 1'
_symmetry_Int_Tables_number     1

_symmetry_equiv_pos_as_xyz 'x,y,z'

loop_
_atom_site_label
_atom_site_type_symbol
_atom_site_fract_x
_atom_site_fract_y
_atom_site_fract_z
_atom_site_charge
C1       C      0.981010000000     0.085380000000     0.086970000000     0.399821   
C2       C      0.987240000000     0.882560000000     0.085260000000     0.398444   
C3       C      0.882460000000     0.985950000000     0.085700000000     0.406567   
C4       C      0.084940000000     0.985800000000     0.087910000000     0.404565   
C5       C      0.989730000000     0.885040000000     0.881290000000     0.406386   
C6       C      0.983350000000     0.086320000000     0.884110000000     0.405673   
C7       C      0.883500000000     0.881780000000     0.991280000000     0.402097   
C8       C      0.086580000000     0.883760000000     0.984970000000     0.396392   
C9       C      0.085070000000     0.086900000000     0.986000000000     0.397399   
C10      C      0.881960000000     0.084220000000     0.984100000000     0.400708   
C11      C      0.884540000000     0.980450000000     0.883080000000     0.404746   
C12      C      0.087470000000     0.988420000000     0.885270000000     0.397085   
C13      C      0.986980000000     0.382770000000     0.385040000000     0.406682   
C14      C      0.983400000000     0.585170000000     0.383720000000     0.416497   
C15      C      0.882990000000     0.479750000000     0.385610000000     0.412502   
C16      C      0.085180000000     0.489890000000     0.383070000000     0.409709   
C17      C      0.987040000000     0.587750000000     0.586070000000     0.400051   
C18      C      0.988620000000     0.384900000000     0.588110000000     0.398653   
C19      C      0.883810000000     0.586110000000     0.483780000000     0.406583   
C20      C      0.086460000000     0.587120000000     0.484610000000     0.408015   
C21      C      0.087870000000     0.384660000000     0.485730000000     0.398665   
C22      C      0.884770000000     0.382970000000     0.488560000000     0.405839   
C23      C      0.885080000000     0.487230000000     0.588140000000     0.400682   
C24      C      0.087910000000     0.487020000000     0.586180000000     0.408129   
C25      C      0.586410000000     0.982480000000     0.384030000000     0.398092   
C26      C      0.383900000000     0.988790000000     0.384150000000     0.398957   
C27      C      0.483980000000     0.884350000000     0.383180000000     0.406335   
C28      C      0.485810000000     0.087020000000     0.385150000000     0.398466   
C29      C      0.383950000000     0.982740000000     0.586910000000     0.412208   
C30      C      0.586870000000     0.980950000000     0.586500000000     0.406093   
C31      C      0.382140000000     0.885200000000     0.483530000000     0.403275   
C32      C      0.385230000000     0.087570000000     0.488170000000     0.40537    
C33      C      0.588240000000     0.084410000000     0.486420000000     0.39657    
C34      C      0.584660000000     0.881620000000     0.483270000000     0.401074   
C35      C      0.481360000000     0.882390000000     0.586120000000     0.408346   
C36      C      0.488630000000     0.085140000000     0.587920000000     0.398361   
C37      C      0.382230000000     0.385260000000     0.985030000000     0.407335   
C38      C      0.385420000000     0.587990000000     0.984240000000     0.405325   
C39      C      0.382620000000     0.487990000000     0.085860000000     0.40106    
C40      C      0.386070000000     0.486420000000     0.882890000000     0.400672   
C41      C      0.587890000000     0.585210000000     0.990550000000     0.396923   
C42      C      0.585210000000     0.382000000000     0.989500000000     0.408084   
C43      C      0.488180000000     0.587190000000     0.086180000000     0.401071   
C44      C      0.488140000000     0.584760000000     0.883220000000     0.39731    
C45      C      0.485170000000     0.381910000000     0.886140000000     0.406736   
C46      C      0.480340000000     0.384730000000     0.088630000000     0.40831    
C47      C      0.585090000000     0.486540000000     0.089110000000     0.400798   
C48      C      0.588760000000     0.479920000000     0.886470000000     0.406618   
C49      C      0.473850000000     0.336260000000     0.186710000000    -0.117166   
C50      C      0.488610000000     0.106030000000     0.317030000000     0.0728252  
C51      C      0.483250000000     0.155380000000     0.366860000000     0.0727286  
C52      C      0.488780000000     0.135060000000     0.287530000000    -0.0923491  
C53      C      0.456940000000     0.236930000000     0.268640000000    -0.0349962  
C54      C      0.455930000000     0.266140000000     0.239320000000    -0.0318352  
C55      C      0.485010000000     0.206240000000     0.266910000000    -0.00529603 
C56      C      0.482910000000     0.185120000000     0.338060000000    -0.0930317  
C57      C      0.483270000000     0.265570000000     0.207790000000    -0.00968463 
C58      C      0.488510000000     0.287620000000     0.136870000000    -0.0986614  
C59      C      0.511400000000     0.234810000000     0.206140000000    -0.0318677  
C60      C      0.486800000000     0.317330000000     0.108140000000     0.0785385  
C61      C      0.471100000000     0.365460000000     0.157230000000     0.16615    
C62      C      0.512150000000     0.205370000000     0.235310000000    -0.0352939  
C63      C      0.485720000000     0.175090000000     0.297900000000     0.0505971  
C64      C      0.482290000000     0.296920000000     0.176760000000     0.0646755  
C65      C      0.481790000000     0.835270000000     0.285130000000    -0.117351   
C66      C      0.491070000000     0.605630000000     0.154410000000     0.0744655  
C67      C      0.490560000000     0.655510000000     0.104900000000     0.0775673  
C68      C      0.492390000000     0.634350000000     0.184140000000    -0.0913545  
C69      C      0.470980000000     0.699850000000     0.241090000000    -0.0349195  
C70      C      0.470740000000     0.728930000000     0.270570000000    -0.0317707  
C71      C      0.492360000000     0.705600000000     0.205690000000    -0.00407711 
C72      C      0.491460000000     0.685040000000     0.133960000000    -0.0888263  
C73      C      0.491520000000     0.764610000000     0.265190000000    -0.0102191  
C74      C      0.494320000000     0.786990000000     0.335910000000    -0.100333   
C75      C      0.512930000000     0.770470000000     0.229940000000    -0.0317118  
C76      C      0.491510000000     0.816890000000     0.364330000000     0.0780202  
C77      C      0.477810000000     0.864690000000     0.314260000000     0.164922   
C78      C      0.513520000000     0.741200000000     0.200590000000    -0.0345113  
C79      C      0.492230000000     0.674660000000     0.174200000000     0.0509248  
C80      C      0.489810000000     0.796100000000     0.295800000000     0.064739   
C81      C      0.476820000000     0.831840000000     0.683310000000    -0.117216   
C82      C      0.491520000000     0.602350000000     0.814680000000     0.0723196  
C83      C      0.486510000000     0.652750000000     0.863410000000     0.0728461  
C84      C      0.492100000000     0.630790000000     0.784550000000    -0.0919998  
C85      C      0.509060000000     0.738370000000     0.767920000000    -0.034725   
C86      C      0.508040000000     0.767670000000     0.738620000000    -0.0318857  
C87      C      0.489530000000     0.701920000000     0.762230000000    -0.00464135 
C88      C      0.486740000000     0.681920000000     0.834000000000    -0.0904316  
C89      C      0.487750000000     0.761130000000     0.702820000000    -0.00994668 
C90      C      0.490590000000     0.784280000000     0.632190000000    -0.0997558  
C91      C      0.468780000000     0.724530000000     0.696770000000    -0.0319884  
C92      C      0.488050000000     0.814560000000     0.604080000000     0.0785009  
C93      C      0.473240000000     0.861630000000     0.654490000000     0.16682    
C94      C      0.469530000000     0.695320000000     0.726190000000    -0.035137   
C95      C      0.489570000000     0.671180000000     0.793960000000     0.0499127  
C96      C      0.485490000000     0.792850000000     0.672360000000     0.0649385  
C97      C      0.480610000000     0.283510000000     0.837750000000    -0.116483   
C98      C      0.493050000000     0.153210000000     0.607020000000     0.0732599  
C99      C      0.487440000000     0.103420000000     0.656350000000     0.0729293  
C100     C      0.493850000000     0.182700000000     0.636100000000    -0.0924612  
C101     C      0.517370000000     0.235250000000     0.706160000000    -0.0354978  
C102     C      0.516810000000     0.264440000000     0.735640000000    -0.0320452  
C103     C      0.490520000000     0.203390000000     0.707410000000    -0.00507144 
C104     C      0.487770000000     0.132200000000     0.686140000000    -0.0917944  
C105     C      0.489200000000     0.262540000000     0.766870000000    -0.00968962 
C106     C      0.494100000000     0.333550000000     0.789030000000    -0.0990339  
C107     C      0.462170000000     0.230750000000     0.767830000000    -0.0317795  
C108     C      0.492240000000     0.362260000000     0.818790000000     0.0786154  
C109     C      0.477800000000     0.312900000000     0.867040000000     0.165547   
C110     C      0.462950000000     0.201460000000     0.738570000000    -0.0348655  
C111     C      0.490920000000     0.172380000000     0.676180000000     0.0504386  
C112     C      0.488390000000     0.293570000000     0.798300000000     0.0644135  
C113     C      0.787680000000     0.332290000000     0.494740000000    -0.116608   
C114     C      0.656780000000     0.102130000000     0.483220000000     0.0727577  
C115     C      0.607990000000     0.152380000000     0.488850000000     0.0724909  
C116     C      0.686830000000     0.130680000000     0.482370000000    -0.0905485  
C117     C      0.745510000000     0.195590000000     0.503220000000    -0.0353729  
C118     C      0.774810000000     0.224940000000     0.503110000000    -0.0319787  
C119     C      0.708920000000     0.201980000000     0.484180000000    -0.00470301 
C120     C      0.637300000000     0.181640000000     0.488390000000    -0.09185    
C121     C      0.768090000000     0.261500000000     0.484260000000    -0.0101021  
C122     C      0.838490000000     0.284940000000     0.479230000000    -0.0997334  
C123     C      0.731720000000     0.267830000000     0.464960000000    -0.0321537  
C124     C      0.866590000000     0.315280000000     0.481170000000     0.0782723  
C125     C      0.816530000000     0.362140000000     0.497730000000     0.164952   
C126     C      0.702560000000     0.238380000000     0.464760000000    -0.0350354  
C127     C      0.677340000000     0.171060000000     0.484940000000     0.0496477  
C128     C      0.798470000000     0.293350000000     0.485610000000     0.0643448  
C129     C      0.833600000000     0.683200000000     0.474880000000    -0.116285   
C130     C      0.602680000000     0.813170000000     0.486340000000     0.074266   
C131     C      0.652540000000     0.862140000000     0.478580000000     0.0797462  
C132     C      0.631340000000     0.783250000000     0.486440000000    -0.0922409  
C133     C      0.701580000000     0.730830000000     0.510090000000    -0.0347298  
C134     C      0.731300000000     0.701900000000     0.510390000000    -0.0317471  
C135     C      0.702380000000     0.761700000000     0.482100000000    -0.00449184 
C136     C      0.681880000000     0.832950000000     0.478210000000    -0.0898072  
C137     C      0.762340000000     0.703100000000     0.482520000000    -0.00930467 
C138     C      0.785790000000     0.632820000000     0.490350000000    -0.0987318  
C139     C      0.762690000000     0.733730000000     0.454170000000    -0.0313263  
C140     C      0.816110000000     0.604660000000     0.489810000000     0.0787997  
C141     C      0.863460000000     0.654300000000     0.473430000000     0.166605   
C142     C      0.733170000000     0.762770000000     0.454090000000    -0.03446    
C143     C      0.671460000000     0.792990000000     0.482290000000     0.0517025  
C144     C      0.794320000000     0.672690000000     0.482980000000     0.0648296  
C145     C      0.288150000000     0.137960000000     0.494450000000    -0.117314   
C146     C      0.156290000000     0.366930000000     0.481950000000     0.0730332  
C147     C      0.107570000000     0.316660000000     0.488210000000     0.0736342  
C148     C      0.186340000000     0.338470000000     0.481110000000    -0.0916758  
C149     C      0.202590000000     0.231000000000     0.464070000000    -0.0344389  
C150     C      0.232010000000     0.201830000000     0.464290000000    -0.0318116  
C151     C      0.208630000000     0.267420000000     0.483500000000    -0.00474696 
C152     C      0.136940000000     0.287450000000     0.487750000000    -0.0916996  
C153     C      0.268280000000     0.208500000000     0.483670000000    -0.0100318  
C154     C      0.338840000000     0.185490000000     0.479010000000    -0.100199   
C155     C      0.274660000000     0.245060000000     0.502580000000    -0.0319659  
C156     C      0.367050000000     0.155280000000     0.481080000000     0.0779749  
C157     C      0.317080000000     0.108260000000     0.497570000000     0.165625   
C158     C      0.245120000000     0.274140000000     0.502640000000    -0.0351432  
C159     C      0.176930000000     0.298130000000     0.484070000000     0.0504999  
C160     C      0.298830000000     0.176880000000     0.485220000000     0.0647769  
C161     C      0.183430000000     0.638030000000     0.488650000000    -0.117003   
C162     C      0.313760000000     0.867730000000     0.477880000000     0.0803328  
C163     C      0.362250000000     0.817310000000     0.484850000000     0.0765505  
C164     C      0.283700000000     0.839310000000     0.476160000000    -0.0889118  
C165     C      0.224840000000     0.774600000000     0.496690000000    -0.0346645  
C166     C      0.195610000000     0.745230000000     0.496480000000    -0.0309966  
C167     C      0.261450000000     0.768220000000     0.477730000000    -0.00394136 
C168     C      0.332910000000     0.788170000000     0.483470000000    -0.0913611  
C169     C      0.202460000000     0.708750000000     0.477560000000    -0.00993278 
C170     C      0.132260000000     0.685000000000     0.473040000000    -0.0995381  
C171     C      0.238800000000     0.702500000000     0.458200000000    -0.0316692  
C172     C      0.104330000000     0.654630000000     0.475700000000     0.0793034  
C173     C      0.154760000000     0.608140000000     0.492320000000     0.166423   
C174     C      0.267910000000     0.731950000000     0.458140000000    -0.0347644  
C175     C      0.293050000000     0.798940000000     0.479010000000     0.0519544  
C176     C      0.172330000000     0.676790000000     0.479200000000     0.0654439  
C177     C      0.832770000000     0.472170000000     0.288520000000    -0.115923   
C178     C      0.602780000000     0.488970000000     0.157700000000     0.0751116  
C179     C      0.653120000000     0.486080000000     0.108680000000     0.0791016  
C180     C      0.631330000000     0.488920000000     0.187750000000    -0.0904995  
C181     C      0.701500000000     0.511650000000     0.241430000000    -0.0349636  
C182     C      0.731060000000     0.510430000000     0.270510000000    -0.0301824  
C183     C      0.702320000000     0.485060000000     0.209370000000    -0.00329882 
C184     C      0.682340000000     0.485430000000     0.137970000000    -0.0886124  
C185     C      0.761830000000     0.482290000000     0.268350000000    -0.0086694  
C186     C      0.785080000000     0.487750000000     0.338980000000    -0.0976457  
C187     C      0.762090000000     0.455290000000     0.236510000000    -0.0295943  
C188     C      0.815270000000     0.486130000000     0.367240000000     0.0836626  
C189     C      0.862420000000     0.469390000000     0.317550000000     0.177667   
C190     C      0.732850000000     0.456840000000     0.207260000000    -0.0340779  
C191     C      0.671580000000     0.486690000000     0.178000000000     0.0516335  
C192     C      0.793640000000     0.481110000000     0.298980000000     0.0681896  
C193     C      0.132980000000     0.498160000000     0.284730000000    -0.116575   
C194     C      0.363440000000     0.489910000000     0.153990000000     0.0794583  
C195     C      0.314100000000     0.488970000000     0.103900000000     0.0759136  
C196     C      0.334360000000     0.489880000000     0.183430000000    -0.0891257  
C197     C      0.265290000000     0.463620000000     0.236160000000    -0.0350344  
C198     C      0.235880000000     0.463760000000     0.265380000000    -0.0302039  
C199     C      0.263090000000     0.489800000000     0.203840000000    -0.00343901 
C200     C      0.284250000000     0.489530000000     0.132630000000    -0.0899262  
C201     C      0.203860000000     0.490430000000     0.263170000000    -0.00906497 
C202     C      0.182260000000     0.484920000000     0.334300000000    -0.0982311  
C203     C      0.201970000000     0.516830000000     0.230850000000    -0.0301378  
C204     C      0.152640000000     0.485630000000     0.363190000000     0.0811777  
C205     C      0.103850000000     0.500090000000     0.314370000000     0.175286   
C206     C      0.231100000000     0.516310000000     0.201400000000    -0.0345089  
C207     C      0.294270000000     0.489670000000     0.172900000000     0.0516981  
C208     C      0.172620000000     0.490820000000     0.294420000000     0.0670195  
C209     C      0.138810000000     0.493730000000     0.683070000000    -0.116456   
C210     C      0.368420000000     0.481930000000     0.814430000000     0.0747684  
C211     C      0.318270000000     0.490730000000     0.862860000000     0.0792208  
C212     C      0.339940000000     0.480910000000     0.784340000000    -0.0913454  
C213     C      0.275600000000     0.501530000000     0.724920000000    -0.0347289  
C214     C      0.246310000000     0.501020000000     0.695560000000    -0.0317942  
C215     C      0.268810000000     0.483690000000     0.762040000000    -0.00417033 
C216     C      0.289070000000     0.490060000000     0.833500000000    -0.089085   
C217     C      0.209480000000     0.482880000000     0.702720000000    -0.00932028 
C218     C      0.185880000000     0.476970000000     0.632390000000    -0.0973118  
C219     C      0.202810000000     0.464690000000     0.739620000000    -0.0316505  
C220     C      0.155520000000     0.478870000000     0.604310000000     0.0848084  
C221     C      0.108960000000     0.496630000000     0.654240000000     0.167182   
C222     C      0.232150000000     0.464960000000     0.768870000000    -0.0344309  
C223     C      0.299650000000     0.484880000000     0.793650000000     0.0512348  
C224     C      0.177620000000     0.484030000000     0.672340000000     0.0654913  
C225     C      0.686780000000     0.474010000000     0.837620000000    -0.11735    
C226     C      0.817020000000     0.491200000000     0.607200000000     0.0790157  
C227     C      0.866700000000     0.485000000000     0.656520000000     0.0745463  
C228     C      0.787480000000     0.491280000000     0.636200000000    -0.0892769  
C229     C      0.772490000000     0.505690000000     0.744320000000    -0.0347365  
C230     C      0.743330000000     0.504370000000     0.773760000000    -0.0314346  
C231     C      0.766430000000     0.486880000000     0.707560000000    -0.00383064 
C232     C      0.837870000000     0.484740000000     0.686270000000    -0.0905553  
C233     C      0.707340000000     0.484470000000     0.767030000000    -0.0101844  
C234     C      0.636600000000     0.488420000000     0.789250000000    -0.100398   
C235     C      0.701130000000     0.465880000000     0.730270000000    -0.0313624  
C236     C      0.608010000000     0.486340000000     0.819050000000     0.0774365  
C237     C      0.657420000000     0.470940000000     0.866990000000     0.165827   
C238     C      0.730370000000     0.466950000000     0.700930000000    -0.0354243  
C239     C      0.797640000000     0.487770000000     0.676330000000     0.0510113  
C240     C      0.676530000000     0.482700000000     0.798430000000     0.0647605  
C241     C      0.834360000000     0.784030000000     0.999860000000    -0.120011   
C242     C      0.605650000000     0.653190000000     0.998800000000     0.0713368  
C243     C      0.656090000000     0.604500000000     0.994220000000     0.0729254  
C244     C      0.633970000000     0.682980000000     0.003500000000    -0.0894049  
C245     C      0.698910000000     0.742750000000     0.989350000000    -0.0359646  
C246     C      0.727840000000     0.772300000000     0.991850000000    -0.0322178  
C247     C      0.704960000000     0.705390000000     0.006990000000    -0.00248846 
C248     C      0.685280000000     0.633710000000     0.998460000000    -0.0907991  
C249     C      0.763750000000     0.765180000000     0.011720000000    -0.00819431 
C250     C      0.787810000000     0.835560000000     0.015580000000    -0.098389   
C251     C      0.769720000000     0.728120000000     0.029860000000    -0.0312447  
C252     C      0.817540000000     0.863700000000     0.009180000000     0.0797103  
C253     C      0.863260000000     0.812840000000     0.992100000000     0.169323   
C254     C      0.740590000000     0.698630000000     0.027690000000    -0.0342245  
C255     C      0.674430000000     0.673600000000     0.003180000000     0.0509198  
C256     C      0.795950000000     0.795230000000     0.010540000000     0.0672319  
C257     C      0.681890000000     0.330880000000     0.995800000000    -0.117612   
C258     C      0.813630000000     0.101960000000     0.978270000000     0.0797061  
C259     C      0.862030000000     0.152100000000     0.987310000000     0.0755465  
C260     C      0.783540000000     0.130420000000     0.977280000000    -0.0890459  
C261     C      0.767730000000     0.238620000000     0.963440000000    -0.0341015  
C262     C      0.738440000000     0.267930000000     0.964170000000    -0.0313619  
C263     C      0.761080000000     0.201460000000     0.981240000000    -0.00343349 
C264     C      0.832650000000     0.181290000000     0.986750000000    -0.0909724  
C265     C      0.701680000000     0.260700000000     0.982400000000    -0.0089566  
C266     C      0.631360000000     0.284330000000     0.977160000000    -0.0977982  
C267     C      0.694670000000     0.223390000000     0.999570000000    -0.0324158  
C268     C      0.603230000000     0.314560000000     0.979960000000     0.0802871  
C269     C      0.652980000000     0.360540000000     0.999680000000     0.173223   
C270     C      0.724080000000     0.194150000000     0.999140000000    -0.0357796  
C271     C      0.792780000000     0.170690000000     0.981660000000     0.0513662  
C272     C      0.671270000000     0.292440000000     0.984610000000     0.0665972  
C273     C      0.336140000000     0.685910000000     0.988940000000    -0.11628    
C274     C      0.105520000000     0.815710000000     0.980530000000     0.0724356  
C275     C      0.154940000000     0.865250000000     0.987100000000     0.0723457  
C276     C      0.134490000000     0.786190000000     0.979210000000    -0.0912478  
C277     C      0.199780000000     0.728310000000     0.999800000000    -0.0360011  
C278     C      0.229110000000     0.699070000000     0.999000000000    -0.0329913  
C279     C      0.205880000000     0.765080000000     0.981020000000    -0.00433066 
C280     C      0.184670000000     0.836410000000     0.986150000000    -0.0919349  
C281     C      0.265360000000     0.705990000000     0.979670000000    -0.00926374 
C282     C      0.288200000000     0.635550000000     0.973780000000    -0.0991261  
C283     C      0.271520000000     0.742640000000     0.960820000000    -0.0320975  
C284     C      0.318170000000     0.607130000000     0.975790000000     0.0778804  
C285     C      0.365660000000     0.656740000000     0.991950000000     0.163495   
C286     C      0.242070000000     0.771800000000     0.961350000000    -0.0346872  
C287     C      0.174670000000     0.796270000000     0.982090000000     0.0498657  
C288     C      0.297040000000     0.675460000000     0.980190000000     0.064018   
C289     C      0.283980000000     0.336790000000     0.978170000000    -0.115858   
C290     C      0.153190000000     0.106010000000     0.989780000000     0.0728537  
C291     C      0.103470000000     0.155310000000     0.983460000000     0.0728181  
C292     C      0.182700000000     0.135090000000     0.990480000000    -0.0926731  
C293     C      0.234800000000     0.205280000000     0.014770000000    -0.0334889  
C294     C      0.263980000000     0.234790000000     0.014740000000    -0.0301363  
C295     C      0.203480000000     0.206410000000     0.987280000000    -0.00646855 
C296     C      0.132290000000     0.185100000000     0.983630000000    -0.0925385  
C297     C      0.262680000000     0.265950000000     0.987000000000    -0.0101408  
C298     C      0.333550000000     0.288260000000     0.993850000000    -0.0964412  
C299     C      0.231440000000     0.266770000000     0.959310000000    -0.0311896  
C300     C      0.362320000000     0.318020000000     0.992550000000     0.0843598  
C301     C      0.313480000000     0.366050000000     0.975870000000     0.166861   
C302     C      0.202110000000     0.237490000000     0.959590000000    -0.0344342  
C303     C      0.172440000000     0.175160000000     0.987250000000     0.0507181  
C304     C      0.293750000000     0.297410000000     0.986750000000     0.0654098  
C305     C      0.684600000000     0.973180000000     0.635440000000    -0.117547   
C306     C      0.865770000000     0.976830000000     0.814840000000     0.0820611  
C307     C      0.816350000000     0.982500000000     0.864510000000     0.0772656  
C308     C      0.836730000000     0.976940000000     0.785280000000    -0.0883689  
C309     C      0.771340000000     0.000890000000     0.728450000000    -0.0327853  
C310     C      0.741820000000     0.001470000000     0.699390000000    -0.029545   
C311     C      0.765180000000     0.980910000000     0.764550000000    -0.00505189 
C312     C      0.786660000000     0.982980000000     0.835740000000    -0.0908642  
C313     C      0.705370000000     0.982360000000     0.705890000000    -0.0113844  
C314     C      0.634740000000     0.988770000000     0.683800000000    -0.0992351  
C315     C      0.699010000000     0.962660000000     0.742020000000    -0.0310509  
C316     C      0.606130000000     0.987490000000     0.653950000000     0.0793561  
C317     C      0.655250000000     0.970820000000     0.606100000000     0.165392   
C318     C      0.728630000000     0.961790000000     0.770960000000    -0.0342989  
C319     C      0.796580000000     0.980220000000     0.795520000000     0.0527811  
C320     C      0.674520000000     0.981990000000     0.674600000000     0.0654639  
C321     C      0.286480000000     0.976190000000     0.636680000000    -0.116365   
C322     C      0.155870000000     0.992500000000     0.867120000000     0.0725837  
C323     C      0.106690000000     0.986970000000     0.817160000000     0.0730613  
C324     C      0.185750000000     0.992860000000     0.838370000000    -0.0926476  
C325     C      0.238690000000     0.015680000000     0.767810000000    -0.0332582  
C326     C      0.267730000000     0.014830000000     0.738170000000    -0.0292573  
C327     C      0.207140000000     0.988470000000     0.767270000000    -0.00606059 
C328     C      0.135830000000     0.986750000000     0.787760000000    -0.0914569  
C329     C      0.266030000000     0.986490000000     0.707560000000    -0.0101607  
C330     C      0.336640000000     0.992620000000     0.684390000000    -0.0971569  
C331     C      0.234670000000     0.958930000000     0.707510000000    -0.0302743  
C332     C      0.365050000000     0.990760000000     0.654340000000     0.0868886  
C333     C      0.315650000000     0.973240000000     0.607170000000     0.176604   
C334     C      0.205490000000     0.960070000000     0.736850000000    -0.0341761  
C335     C      0.175880000000     0.989590000000     0.798200000000     0.0508085  
C336     C      0.296740000000     0.985530000000     0.675780000000     0.067968   
C337     C      0.134210000000     0.991170000000     0.185910000000    -0.116688   
C338     C      0.365280000000     0.989300000000     0.315800000000     0.0775246  
C339     C      0.315570000000     0.989890000000     0.365450000000     0.0741456  
C340     C      0.336400000000     0.988490000000     0.286110000000    -0.0886669  
C341     C      0.269870000000     0.007700000000     0.228970000000    -0.0332248  
C342     C      0.240560000000     0.006500000000     0.199680000000    -0.0299137  
C343     C      0.264890000000     0.987100000000     0.264940000000    -0.00503423 
C344     C      0.285930000000     0.989430000000     0.336500000000    -0.0896236  
C345     C      0.205410000000     0.984970000000     0.205780000000    -0.0114003  
C346     C      0.182790000000     0.979890000000     0.135170000000    -0.100213   
C347     C      0.200360000000     0.964330000000     0.241620000000    -0.0312107  
C348     C      0.152650000000     0.980790000000     0.106840000000     0.077646   
C349     C      0.104480000000     0.993180000000     0.156850000000     0.163728   
C350     C      0.229810000000     0.965220000000     0.270770000000    -0.0340193  
C351     C      0.296100000000     0.988380000000     0.296210000000     0.0509013  
C352     C      0.173710000000     0.984840000000     0.175230000000     0.0647414  
C353     C      0.784760000000     0.990500000000     0.135330000000    -0.117182   
C354     C      0.605300000000     0.983790000000     0.315780000000     0.0730389  
C355     C      0.654590000000     0.977970000000     0.365560000000     0.0725063  
C356     C      0.634320000000     0.983130000000     0.286250000000    -0.0906598  
C357     C      0.699660000000     0.959930000000     0.229150000000    -0.0350637  
C358     C      0.728820000000     0.960470000000     0.199710000000    -0.0320615  
C359     C      0.705800000000     0.979490000000     0.265490000000    -0.00421493 
C360     C      0.684310000000     0.976970000000     0.336770000000    -0.0915481  
C361     C      0.764890000000     0.980340000000     0.206050000000    -0.00973113 
C362     C      0.835440000000     0.976290000000     0.183240000000    -0.0996517  
C363     C      0.771280000000     0.999510000000     0.242480000000    -0.033295   
C364     C      0.863750000000     0.978620000000     0.153200000000     0.0773177  
C365     C      0.813820000000     0.993840000000     0.105740000000     0.163776   
C366     C      0.742020000000     0.999210000000     0.271810000000    -0.0367204  
C367     C      0.674430000000     0.979730000000     0.296520000000     0.04957    
C368     C      0.795410000000     0.981880000000     0.174410000000     0.063922   
C369     C      0.977860000000     0.136200000000     0.786630000000    -0.117057   
C370     C      0.992240000000     0.366790000000     0.656520000000     0.0735367  
C371     C      0.987180000000     0.316790000000     0.607330000000     0.0735722  
C372     C      0.992520000000     0.338090000000     0.686410000000    -0.0913385  
C373     C      0.015180000000     0.267990000000     0.739740000000    -0.0338449  
C374     C      0.014370000000     0.238380000000     0.768800000000    -0.0300067  
C375     C      0.988430000000     0.266990000000     0.707810000000    -0.00609438 
C376     C      0.986970000000     0.287410000000     0.636470000000    -0.0926272  
C377     C      0.986570000000     0.207330000000     0.766680000000    -0.0112481  
C378     C      0.991680000000     0.184180000000     0.837330000000    -0.0998301  
C379     C      0.959450000000     0.206810000000     0.734960000000    -0.0313108  
C380     C      0.989970000000     0.153990000000     0.865590000000     0.0778979  
C381     C      0.975140000000     0.106500000000     0.815600000000     0.164906   
C382     C      0.960510000000     0.236170000000     0.705800000000    -0.034704   
C383     C      0.989520000000     0.297900000000     0.676540000000     0.0509812  
C384     C      0.985780000000     0.175490000000     0.797250000000     0.0646843  
C385     C      0.975740000000     0.792490000000     0.825990000000    -0.122691   
C386     C      0.998160000000     0.655340000000     0.603840000000     0.072001   
C387     C      0.983670000000     0.608190000000     0.653830000000     0.0799947  
C388     C      0.002330000000     0.685120000000     0.632340000000    -0.0829869  
C389     C      0.013030000000     0.699160000000     0.742210000000    -0.0356235  
C390     C      0.014430000000     0.728450000000     0.771550000000    -0.0301351  
C391     C      0.000120000000     0.708280000000     0.703490000000     0.00164679 
C392     C      0.986690000000     0.637470000000     0.683020000000    -0.0857086  
C393     C      0.003990000000     0.767700000000     0.762650000000    -0.0100902  
C394     C      0.022910000000     0.833540000000     0.791560000000    -0.101189   
C395     C      0.992340000000     0.777340000000     0.723920000000    -0.0311073  
C396     C      0.018160000000     0.862550000000     0.820840000000     0.0822927  
C397     C      0.970470000000     0.822640000000     0.853970000000     0.172801   
C398     C      0.990030000000     0.747930000000     0.694770000000    -0.0372859  
C399     C      0.996490000000     0.676590000000     0.672640000000     0.0463903  
C400     C      0.001970000000     0.797860000000     0.794400000000     0.0688695  
C401     C      0.965180000000     0.637260000000     0.289500000000    -0.114175   
C402     C      0.977540000000     0.862310000000     0.152240000000     0.0747392  
C403     C      0.000100000000     0.815800000000     0.104690000000     0.0768936  
C404     C      0.977520000000     0.833120000000     0.181580000000    -0.0894511  
C405     C      0.995680000000     0.772640000000     0.244260000000    -0.0366881  
C406     C      0.994400000000     0.743430000000     0.273590000000    -0.0299639  
C407     C      0.990520000000     0.762860000000     0.203990000000    -0.00208441 
C408     C      0.001830000000     0.786230000000     0.133640000000    -0.0877771  
C409     C      0.989330000000     0.703200000000     0.263600000000    -0.00784176 
C410     C      0.006930000000     0.676920000000     0.331450000000    -0.0952156  
C411     C      0.985400000000     0.693270000000     0.223220000000    -0.0301891  
C412     C      0.003630000000     0.648170000000     0.360960000000     0.0923605  
C413     C      0.962910000000     0.608320000000     0.319350000000     0.178367   
C414     C      0.985300000000     0.722640000000     0.194000000000    -0.0342284  
C415     C      0.990080000000     0.794410000000     0.172760000000     0.0486482  
C416     C      0.987470000000     0.671950000000     0.295070000000     0.0673934  
C417     C      0.994070000000     0.333070000000     0.287530000000    -0.117894   
C418     C      0.975840000000     0.103570000000     0.155300000000     0.0791716  
C419     C      0.983480000000     0.153480000000     0.106390000000     0.0749384  
C420     C      0.975570000000     0.132210000000     0.185270000000    -0.0892962  
C421     C      0.953830000000     0.202610000000     0.238660000000    -0.0345639  
C422     C      0.954890000000     0.231960000000     0.268020000000    -0.0304361  
C423     C      0.981120000000     0.203150000000     0.207150000000    -0.0051285  
C424     C      0.983740000000     0.182810000000     0.135660000000    -0.0915743  
C425     C      0.983490000000     0.262340000000     0.266690000000    -0.0106409  
C426     C      0.977260000000     0.285300000000     0.337490000000    -0.0992412  
C427     C      0.011110000000     0.262410000000     0.235380000000    -0.0291048  
C428     C      0.979110000000     0.315300000000     0.366020000000     0.0801328  
C429     C      0.996930000000     0.362530000000     0.316780000000     0.173714   
C430     C      0.009800000000     0.233320000000     0.205900000000    -0.0324763  
C431     C      0.979910000000     0.172350000000     0.175650000000     0.0519332  
C432     C      0.984540000000     0.293980000000     0.297610000000     0.0672459  
H1       H      0.928630000000     0.927070000000     0.041550000000     0.213544   
H2       H      0.040120000000     0.041800000000     0.042840000000     0.2147     
H3       H      0.927860000000     0.040190000000     0.928100000000     0.213703   
H4       H      0.042890000000     0.928910000000     0.928950000000     0.211605   
H5       H      0.927790000000     0.540860000000     0.429100000000     0.222773   
H6       H      0.042310000000     0.428510000000     0.428740000000     0.215152   
H7       H      0.929790000000     0.428650000000     0.543670000000     0.213855   
H8       H      0.042610000000     0.542550000000     0.541490000000     0.220182   
H9       H      0.427650000000     0.929560000000     0.428050000000     0.215226   
H10      H      0.542790000000     0.041230000000     0.429190000000     0.211142   
H11      H      0.541030000000     0.926340000000     0.541610000000     0.215096   
H12      H      0.429450000000     0.041650000000     0.543130000000     0.21479    
H13      H      0.428860000000     0.543390000000     0.041420000000     0.215489   
H14      H      0.428770000000     0.428500000000     0.929220000000     0.217752   
H15      H      0.540550000000     0.428080000000     0.044560000000     0.215615   
H16      H      0.544240000000     0.540350000000     0.929490000000     0.209983   
H17      H      0.481060000000     0.164580000000     0.397590000000     0.0242625  
H18      H      0.492730000000     0.308450000000     0.077800000000     0.0283185  
H19      H      0.534380000000     0.182240000000     0.233490000000     0.0401953  
H20      H      0.433280000000     0.288840000000     0.241100000000     0.0414164  
H21      H      0.494380000000     0.257410000000     0.127660000000     0.0573318  
H22      H      0.435260000000     0.237970000000     0.292340000000     0.0401915  
H23      H      0.468200000000     0.344340000000     0.217290000000     0.0775003  
H24      H      0.480830000000     0.215840000000     0.347260000000     0.0538786  
H25      H      0.490640000000     0.126110000000     0.256720000000     0.0553913  
H26      H      0.533220000000     0.233740000000     0.182600000000     0.0395605  
H27      H      0.490830000000     0.075390000000     0.307510000000     0.0283744  
H28      H      0.490070000000     0.665020000000     0.074200000000     0.039897   
H29      H      0.496360000000     0.808230000000     0.394920000000     0.0245495  
H30      H      0.530860000000     0.746390000000     0.174060000000     0.0404051  
H31      H      0.453480000000     0.723900000000     0.297190000000     0.0392057  
H32      H      0.500580000000     0.756900000000     0.345320000000     0.0557906  
H33      H      0.453710000000     0.673190000000     0.245780000000     0.0401446  
H34      H      0.476340000000     0.842660000000     0.254310000000     0.0786064  
H35      H      0.490870000000     0.715820000000     0.124790000000     0.0584585  
H36      H      0.493820000000     0.624820000000     0.214780000000     0.0543684  
H37      H      0.529500000000     0.797590000000     0.225220000000     0.0418697  
H38      H      0.491100000000     0.574860000000     0.163760000000     0.0284034  
H39      H      0.484070000000     0.662610000000     0.893920000000     0.0319422  
H40      H      0.493510000000     0.806350000000     0.573470000000     0.0237779  
H41      H      0.453640000000     0.667900000000     0.720990000000     0.0392808  
H42      H      0.523370000000     0.795410000000     0.743890000000     0.0420802  
H43      H      0.497340000000     0.754400000000     0.622480000000     0.0555027  
H44      H      0.525400000000     0.744230000000     0.794930000000     0.0402999  
H45      H      0.470770000000     0.838840000000     0.714110000000     0.0788356  
H46      H      0.484050000000     0.712720000000     0.842730000000     0.0563407  
H47      H      0.494960000000     0.621050000000     0.754080000000     0.0526979  
H48      H      0.452460000000     0.718840000000     0.669690000000     0.0393857  
H49      H      0.493630000000     0.571510000000     0.805830000000     0.0241066  
H50      H      0.484930000000     0.072710000000     0.665560000000     0.02819    
H51      H      0.497560000000     0.392690000000     0.809830000000     0.0251524  
H52      H      0.441450000000     0.177610000000     0.739940000000     0.0406333  
H53      H      0.538390000000     0.288190000000     0.734230000000     0.0388949  
H54      H      0.499550000000     0.342860000000     0.758770000000     0.0553663  
H55      H      0.539220000000     0.237290000000     0.682700000000     0.0397519  
H56      H      0.475630000000     0.252820000000     0.845910000000     0.0777284  
H57      H      0.485870000000     0.122960000000     0.716860000000     0.0555255  
H58      H      0.495990000000     0.213480000000     0.627140000000     0.0535769  
H59      H      0.439900000000     0.228750000000     0.790880000000     0.0418303  
H60      H      0.495110000000     0.162720000000     0.576370000000     0.0250629  
H61      H      0.577490000000     0.162170000000     0.491620000000     0.0246766  
H62      H      0.897050000000     0.307160000000     0.474800000000     0.0244817  
H63      H      0.675110000000     0.244100000000     0.449100000000     0.0394777  
H64      H      0.802360000000     0.219410000000     0.518690000000     0.0391111  
H65      H      0.848060000000     0.255130000000     0.472040000000     0.0558921  
H66      H      0.751280000000     0.168220000000     0.519000000000     0.0404787  
H67      H      0.757050000000     0.339180000000     0.501660000000     0.0777506  
H68      H      0.628490000000     0.212400000000     0.491230000000     0.0532945  
H69      H      0.717280000000     0.121020000000     0.479120000000     0.055258   
H70      H      0.725910000000     0.295530000000     0.449740000000     0.0420948  
H71      H      0.665680000000     0.071320000000     0.480940000000     0.0310092  
H72      H      0.662120000000     0.892660000000     0.475350000000     0.0378612  
H73      H      0.807760000000     0.574310000000     0.496450000000     0.0276216  
H74      H      0.734200000000     0.785840000000     0.431750000000     0.0410895  
H75      H      0.730350000000     0.679030000000     0.532920000000     0.0391487  
H76      H      0.755710000000     0.623180000000     0.496130000000     0.0565422  
H77      H      0.678400000000     0.729500000000     0.532300000000     0.040386   
H78      H      0.841150000000     0.713800000000     0.468570000000     0.078694   
H79      H      0.712640000000     0.841740000000     0.475250000000     0.0591809  
H80      H      0.622050000000     0.752620000000     0.489280000000     0.0534552  
H81      H      0.785580000000     0.735100000000     0.431680000000     0.0426573  
H82      H      0.571980000000     0.804190000000     0.489610000000     0.0240361  
H83      H      0.077080000000     0.306890000000     0.491210000000     0.0259678  
H84      H      0.397510000000     0.163440000000     0.474770000000     0.0240053  
H85      H      0.250610000000     0.301560000000     0.518440000000     0.0394637  
H86      H      0.226480000000     0.174080000000     0.449060000000     0.0427672  
H87      H      0.348300000000     0.215340000000     0.471810000000     0.055521   
H88      H      0.175200000000     0.225070000000     0.448380000000     0.04062    
H89      H      0.257530000000     0.130970000000     0.501350000000     0.0797171  
H90      H      0.128240000000     0.256680000000     0.490810000000     0.0548465  
H91      H      0.216760000000     0.348160000000     0.477610000000     0.0542458  
H92      H      0.302120000000     0.250820000000     0.518240000000     0.0388938  
H93      H      0.165160000000     0.397730000000     0.479400000000     0.0277248  
H94      H      0.392640000000     0.807440000000     0.488500000000     0.0260644  
H95      H      0.073770000000     0.662550000000     0.469550000000     0.0286229  
H96      H      0.295440000000     0.726320000000     0.442580000000     0.039798   
H97      H      0.168070000000     0.750660000000     0.512100000000     0.0408051  
H98      H      0.122510000000     0.714690000000     0.465590000000     0.0579177  
H99      H      0.219060000000     0.801910000000     0.512560000000     0.0434721  
H100     H      0.214160000000     0.631350000000     0.495360000000     0.0783759  
H101     H      0.341510000000     0.757360000000     0.486500000000     0.0544924  
H102     H      0.253360000000     0.849030000000     0.472110000000     0.0587758  
H103     H      0.244660000000     0.674820000000     0.442950000000     0.0419661  
H104     H      0.305040000000     0.898570000000     0.475280000000     0.0397806  
H105     H      0.662970000000     0.485290000000     0.078090000000     0.0432106  
H106     H      0.806960000000     0.492480000000     0.397660000000     0.030428   
H107     H      0.733810000000     0.435570000000     0.183190000000     0.0454539  
H108     H      0.730150000000     0.531990000000     0.294290000000     0.0406256  
H109     H      0.755090000000     0.493960000000     0.348650000000     0.0585647  
H110     H      0.678430000000     0.533910000000     0.243580000000     0.040886   
H111     H      0.840350000000     0.466230000000     0.257870000000     0.0831952  
H112     H      0.713240000000     0.484240000000     0.129260000000     0.0615518  
H113     H      0.621870000000     0.489780000000     0.218440000000     0.0565012  
H114     H      0.784670000000     0.432560000000     0.234320000000     0.0439801  
H115     H      0.571930000000     0.490220000000     0.166670000000     0.031192   
H116     H      0.304920000000     0.488420000000     0.073090000000     0.0332948  
H117     H      0.161860000000     0.479940000000     0.393470000000     0.0293597  
H118     H      0.229000000000     0.537180000000     0.177050000000     0.0421343  
H119     H      0.238030000000     0.442570000000     0.289430000000     0.0399401  
H120     H      0.212650000000     0.480000000000     0.343420000000     0.0579833  
H121     H      0.289470000000     0.442590000000     0.238520000000     0.0435825  
H122     H      0.124520000000     0.503480000000     0.254190000000     0.0820613  
H123     H      0.253490000000     0.489210000000     0.123360000000     0.0586179  
H124     H      0.343260000000     0.490590000000     0.214310000000     0.0586564  
H125     H      0.178310000000     0.538410000000     0.228530000000     0.0430854  
H126     H      0.394080000000     0.490680000000     0.163670000000     0.0397282  
H127     H      0.308540000000     0.494970000000     0.893220000000     0.0376424  
H128     H      0.163470000000     0.472010000000     0.573910000000     0.0345595  
H129     H      0.226160000000     0.450220000000     0.796770000000     0.0429315  
H130     H      0.252120000000     0.515760000000     0.667610000000     0.0420771  
H131     H      0.215600000000     0.469320000000     0.622860000000     0.0591535  
H132     H      0.303220000000     0.516720000000     0.718790000000     0.0396063  
H133     H      0.132050000000     0.501220000000     0.713600000000     0.0788338  
H134     H      0.258380000000     0.494070000000     0.842080000000     0.0583012  
H135     H      0.349540000000     0.476370000000     0.754030000000     0.0536286  
H136     H      0.174900000000     0.450030000000     0.745790000000     0.0422948  
H137     H      0.399160000000     0.478390000000     0.805700000000     0.0252088  
H138     H      0.897390000000     0.482240000000     0.665710000000     0.0284822  
H139     H      0.577630000000     0.492240000000     0.810290000000     0.0230145  
H140     H      0.724950000000     0.451510000000     0.673300000000     0.0421271  
H141     H      0.748740000000     0.519360000000     0.801660000000     0.0427613  
H142     H      0.627430000000     0.495290000000     0.759220000000     0.05532    
H143     H      0.799590000000     0.521870000000     0.750240000000     0.0411949  
H144     H      0.717380000000     0.467590000000     0.845100000000     0.0796067  
H145     H      0.847160000000     0.481430000000     0.716840000000     0.0558203  
H146     H      0.756840000000     0.494460000000     0.627100000000     0.0569773  
H147     H      0.673940000000     0.449800000000     0.724440000000     0.0391786  
H148     H      0.807580000000     0.494060000000     0.576590000000     0.0370291  
H149     H      0.665930000000     0.574100000000     0.990570000000     0.0335758  
H150     H      0.809740000000     0.894530000000     0.013980000000     0.032519   
H151     H      0.746030000000     0.670540000000     0.042270000000     0.0420744  
H152     H      0.722670000000     0.800250000000     0.976880000000     0.0413401  
H153     H      0.758440000000     0.845420000000     0.024090000000     0.0592602  
H154     H      0.672260000000     0.748910000000     0.972530000000     0.0402175  
H155     H      0.840930000000     0.753190000000     0.993540000000     0.0792601  
H156     H      0.716170000000     0.625000000000     0.997370000000     0.0574836  
H157     H      0.623990000000     0.713200000000     0.007800000000     0.0547082  
H158     H      0.797040000000     0.721880000000     0.045560000000     0.0426359  
H159     H      0.574780000000     0.662170000000     0.999420000000     0.0289476  
H160     H      0.892380000000     0.161840000000     0.991550000000     0.0260559  
H161     H      0.572890000000     0.306860000000     0.972580000000     0.033902   
H162     H      0.718080000000     0.166150000000     0.013680000000     0.0443475  
H163     H      0.744480000000     0.296260000000     0.950260000000     0.0453842  
H164     H      0.621930000000     0.254880000000     0.968430000000     0.0597467  
H165     H      0.795520000000     0.245060000000     0.948690000000     0.0410206  
H166     H      0.712360000000     0.337360000000     0.003750000000     0.082565   
H167     H      0.841220000000     0.211960000000     0.990930000000     0.0551698  
H168     H      0.753260000000     0.120810000000     0.972610000000     0.0578274  
H169     H      0.666820000000     0.217140000000     0.014300000000     0.0419173  
H170     H      0.804940000000     0.071230000000     0.974490000000     0.0373085  
H171     H      0.164180000000     0.895880000000     0.990370000000     0.0244037  
H172     H      0.309680000000     0.576730000000     0.969610000000     0.0282083  
H173     H      0.247540000000     0.799470000000     0.945990000000     0.0398347  
H174     H      0.223760000000     0.671350000000     0.014350000000     0.0417704  
H175     H      0.258250000000     0.626260000000     0.966750000000     0.0575673  
H176     H      0.172590000000     0.722330000000     0.015820000000     0.0420337  
H177     H      0.343400000000     0.716490000000     0.995760000000     0.0778215  
H178     H      0.215300000000     0.845600000000     0.989140000000     0.0537107  
H179     H      0.125310000000     0.755640000000     0.975420000000     0.055582   
H180     H      0.299030000000     0.748630000000     0.945340000000     0.0420377  
H181     H      0.074870000000     0.806300000000     0.978020000000     0.0302698  
H182     H      0.072780000000     0.164500000000     0.980710000000     0.0250743  
H183     H      0.392550000000     0.309170000000     0.999030000000     0.0364252  
H184     H      0.178690000000     0.238800000000     0.937630000000     0.0403829  
H185     H      0.287240000000     0.233450000000     0.036850000000     0.039882   
H186     H      0.342710000000     0.258080000000     0.999970000000     0.0594907  
H187     H      0.236400000000     0.181890000000     0.036740000000     0.0402005  
H188     H      0.253490000000     0.344900000000     0.972110000000     0.0779647  
H189     H      0.123090000000     0.215810000000     0.981400000000     0.0545923  
H190     H      0.213460000000     0.126130000000     0.992930000000     0.0538857  
H191     H      0.229880000000     0.289730000000     0.936910000000     0.0421186  
H192     H      0.162670000000     0.075380000000     0.992200000000     0.0251612  
H193     H      0.807050000000     0.985050000000     0.895180000000     0.0288869  
H194     H      0.575870000000     0.994110000000     0.662600000000     0.0294352  
H195     H      0.723090000000     0.945530000000     0.798100000000     0.041337   
H196     H      0.747350000000     0.017210000000     0.671920000000     0.0425056  
H197     H      0.625770000000     0.995700000000     0.713870000000     0.0581123  
H198     H      0.798810000000     0.016540000000     0.722780000000     0.0430023  
H199     H      0.715020000000     0.965920000000     0.627980000000     0.0788123  
H200     H      0.756100000000     0.986200000000     0.845100000000     0.0555292  
H201     H      0.845790000000     0.974030000000     0.754600000000     0.059413   
H202     H      0.671430000000     0.947150000000     0.747580000000     0.0408193  
H203     H      0.896410000000     0.974170000000     0.805480000000     0.0400172  
H204     H      0.076100000000     0.984590000000     0.807540000000     0.0322031  
H205     H      0.395390000000     0.997400000000     0.662680000000     0.0336449  
H206     H      0.181870000000     0.938300000000     0.736070000000     0.0408186  
H207     H      0.291130000000     0.036810000000     0.738920000000     0.0397955  
H208     H      0.346160000000     0.999250000000     0.714350000000     0.0594724  
H209     H      0.240500000000     0.038110000000     0.790740000000     0.0406855  
H210     H      0.255900000000     0.969980000000     0.629060000000     0.0807789  
H211     H      0.126970000000     0.984620000000     0.756940000000     0.0573133  
H212     H      0.216440000000     0.994870000000     0.847650000000     0.0538658  
H213     H      0.232860000000     0.936060000000     0.685040000000     0.0429286  
H214     H      0.164950000000     0.994720000000     0.897880000000     0.0247634  
H215     H      0.306130000000     0.990470000000     0.396180000000     0.0341076  
H216     H      0.161450000000     0.975830000000     0.076300000000     0.0245567  
H217     H      0.225220000000     0.948370000000     0.297720000000     0.0413381  
H218     H      0.245020000000     0.023180000000     0.172590000000     0.0393804  
H219     H      0.213060000000     0.974760000000     0.125700000000     0.0561754  
H220     H      0.296130000000     0.025400000000     0.223650000000     0.0403691  
H221     H      0.126650000000     0.996750000000     0.216660000000     0.078242   
H222     H      0.255200000000     0.990220000000     0.345790000000     0.0570114  
H223     H      0.345800000000     0.987290000000     0.255430000000     0.0580376  
H224     H      0.173740000000     0.947140000000     0.246940000000     0.0424791  
H225     H      0.396010000000     0.989420000000     0.306380000000     0.0397417  
H226     H      0.663800000000     0.975690000000     0.396290000000     0.0282183  
H227     H      0.894250000000     0.972940000000     0.161690000000     0.0268048  
H228     H      0.747530000000     0.015170000000     0.299130000000     0.0410225  
H229     H      0.723290000000     0.945050000000     0.172070000000     0.0414922  
H230     H      0.844880000000     0.969460000000     0.213190000000     0.0566961  
H231     H      0.672430000000     0.943860000000     0.223510000000     0.0409292  
H232     H      0.754070000000     0.996770000000     0.128110000000     0.0777196  
H233     H      0.714860000000     0.973630000000     0.346130000000     0.0542405  
H234     H      0.625280000000     0.985960000000     0.255550000000     0.0556644  
H235     H      0.798560000000     0.015560000000     0.247980000000     0.041128   
H236     H      0.574710000000     0.986670000000     0.306320000000     0.0312046  
H237     H      0.985070000000     0.307160000000     0.576720000000     0.0250697  
H238     H      0.995540000000     0.162430000000     0.896120000000     0.0243211  
H239     H      0.939070000000     0.235030000000     0.681890000000     0.0406266  
H240     H      0.035980000000     0.239470000000     0.792540000000     0.0390385  
H241     H      0.997230000000     0.214290000000     0.847050000000     0.0555841  
H242     H      0.037250000000     0.291250000000     0.741840000000     0.0410845  
H243     H      0.972630000000     0.128530000000     0.755870000000     0.0779445  
H244     H      0.985080000000     0.256580000000     0.627610000000     0.0547106  
H245     H      0.994280000000     0.347400000000     0.717110000000     0.0563842  
H246     H      0.937010000000     0.183940000000     0.732830000000     0.0415592  
H247     H      0.994270000000     0.397560000000     0.665620000000     0.0319732  
H248     H      0.976090000000     0.578430000000     0.663410000000     0.0364592  
H249     H      0.035620000000     0.889470000000     0.818410000000     0.0224443  
H250     H      0.979180000000     0.756270000000     0.665740000000     0.0419156  
H251     H      0.023520000000     0.720430000000     0.801320000000     0.0428649  
H252     H      0.042890000000     0.838870000000     0.766970000000     0.0585043  
H253     H      0.022030000000     0.669370000000     0.750060000000     0.0441017  
H254     H      0.956840000000     0.766480000000     0.826980000000     0.0796301  
H255     H      0.980810000000     0.629320000000     0.713510000000     0.0572227  
H256     H      0.010730000000     0.714530000000     0.622590000000     0.0550688  
H257     H      0.983540000000     0.807370000000     0.716600000000     0.0423278  
H258     H      0.003290000000     0.663520000000     0.573160000000     0.0334391  
H259     H      0.009460000000     0.807980000000     0.074920000000     0.0317594  
H260     H      0.019850000000     0.653180000000     0.388310000000     0.0293728  
H261     H      0.980530000000     0.713530000000     0.163610000000     0.0421358  
H262     H      0.996850000000     0.752810000000     0.304180000000     0.0400722  
H263     H      0.025330000000     0.702550000000     0.337250000000     0.0588665  
H264     H      0.000790000000     0.802940000000     0.253500000000     0.0425647  
H265     H      0.947830000000     0.633200000000     0.262810000000     0.0813606  
H266     H      0.012840000000     0.757310000000     0.125160000000     0.0563836  
H267     H      0.966980000000     0.841090000000     0.210820000000     0.0549447  
H268     H      0.982360000000     0.662730000000     0.213860000000     0.0454287  
H269     H      0.967470000000     0.891690000000     0.160610000000     0.0285523  
H270     H      0.986680000000     0.163080000000     0.075870000000     0.0255485  
H271     H      0.972340000000     0.306950000000     0.396340000000     0.0244111  
H272     H      0.031670000000     0.234120000000     0.182380000000     0.0423014  
H273     H      0.932860000000     0.231200000000     0.291370000000     0.0397418  
H274     H      0.970460000000     0.255340000000     0.346870000000     0.0559977  
H275     H      0.931160000000     0.179890000000     0.240220000000     0.0410079  
H276     H      0.000420000000     0.340760000000     0.256990000000     0.0836292  
H277     H      0.986700000000     0.213600000000     0.126920000000     0.0557048  
H278     H      0.972750000000     0.122850000000     0.215880000000     0.0585217  
H279     H      0.034180000000     0.284690000000     0.233820000000     0.0430499  
H280     H      0.972620000000     0.072850000000     0.164260000000     0.0385742  
N1       N      0.478940000000     0.356190000000     0.117960000000    -0.200415   
N2       N      0.485900000000     0.116020000000     0.356490000000    -0.192468   
N3       N      0.456080000000     0.403560000000     0.168800000000    -0.0328881  
N4       N      0.483990000000     0.855690000000     0.353930000000    -0.200628   
N5       N      0.489900000000     0.616020000000     0.114990000000    -0.190282   
N6       N      0.463370000000     0.902740000000     0.301750000000    -0.032175   
N7       N      0.480360000000     0.853220000000     0.614860000000    -0.200302   
N8       N      0.488750000000     0.613160000000     0.853910000000    -0.191631   
N9       N      0.458370000000     0.899470000000     0.667180000000    -0.0329891  
N10      N      0.484700000000     0.352380000000     0.857710000000    -0.199969   
N11      N      0.489760000000     0.113780000000     0.616980000000    -0.191798   
N12      N      0.464330000000     0.300750000000     0.905550000000    -0.0325823  
N13      N      0.855990000000     0.353840000000     0.489570000000    -0.200089   
N14      N      0.617550000000     0.112830000000     0.486250000000    -0.191399   
N15      N      0.804120000000     0.399870000000     0.513110000000    -0.032213   
N16      N      0.854850000000     0.615000000000     0.482030000000    -0.200057   
N17      N      0.613150000000     0.852430000000     0.482680000000    -0.190585   
N18      N      0.901730000000     0.666490000000     0.459280000000    -0.0330861  
N19      N      0.356510000000     0.116700000000     0.489390000000    -0.20071    
N20      N      0.117090000000     0.356200000000     0.485360000000    -0.191996   
N21      N      0.304810000000     0.070530000000     0.513080000000    -0.0326042  
N22      N      0.115180000000     0.616260000000     0.484600000000    -0.200307   
N23      N      0.352840000000     0.856880000000     0.482170000000    -0.190214   
N24      N      0.167490000000     0.570630000000     0.507960000000    -0.0326251  
N25      N      0.853900000000     0.477910000000     0.356860000000    -0.198551   
N26      N      0.613520000000     0.487260000000     0.118370000000    -0.189516   
N27      N      0.900250000000     0.453930000000     0.305490000000    -0.032452   
N28      N      0.113520000000     0.492300000000     0.353590000000    -0.199034   
N29      N      0.353510000000     0.488970000000     0.114430000000    -0.189541   
N30      N      0.065190000000     0.513840000000     0.302910000000    -0.0322601  
N31      N      0.117100000000     0.487900000000     0.614880000000    -0.198487   
N32      N      0.357730000000     0.486480000000     0.853520000000    -0.19024    
N33      N      0.071470000000     0.512680000000     0.666490000000    -0.0325795  
N34      N      0.618040000000     0.478560000000     0.857880000000    -0.200864   
N35      N      0.856420000000     0.487880000000     0.617170000000    -0.190271   
N36      N      0.669280000000     0.456150000000     0.905140000000    -0.0331699  
N37      N      0.855010000000     0.852790000000     0.997180000000    -0.199237   
N38      N      0.616480000000     0.614120000000     0.994260000000    -0.190664   
N39      N      0.897110000000     0.800470000000     0.969960000000    -0.038033   
N40      N      0.613750000000     0.352680000000     0.990210000000    -0.19877    
N41      N      0.852670000000     0.112620000000     0.983270000000    -0.190038   
N42      N      0.664820000000     0.397290000000     0.017670000000    -0.030974   
N43      N      0.356820000000     0.617290000000     0.984310000000    -0.200168   
N44      N      0.115560000000     0.855060000000     0.984310000000    -0.191855   
N45      N      0.403540000000     0.668820000000     0.007140000000    -0.0308608  
N46      N      0.352710000000     0.356820000000     0.984140000000    -0.197978   
N47      N      0.113760000000     0.115950000000     0.986380000000    -0.191791   
N48      N      0.301880000000     0.404290000000     0.961200000000    -0.0325047  
N49      N      0.616040000000     0.979350000000     0.615170000000    -0.200317   
N50      N      0.855720000000     0.979760000000     0.854240000000    -0.189893   
N51      N      0.666800000000     0.955460000000     0.568100000000    -0.0323629  
N52      N      0.354920000000     0.981810000000     0.615790000000    -0.197538   
N53      N      0.116560000000     0.989420000000     0.856660000000    -0.19149    
N54      N      0.303810000000     0.957340000000     0.569470000000    -0.0321935  
N55      N      0.113590000000     0.986870000000     0.117210000000    -0.200106   
N56      N      0.355050000000     0.989480000000     0.355270000000    -0.189491   
N57      N      0.065750000000     0.005530000000     0.169460000000    -0.0307591  
N58      N      0.853360000000     0.986610000000     0.114500000000    -0.20037    
N59      N      0.615290000000     0.981420000000     0.355240000000    -0.191599   
N60      N      0.801450000000     0.008570000000     0.067760000000    -0.0311898  
N61      N      0.982430000000     0.115230000000     0.855130000000    -0.200634   
N62      N      0.989430000000     0.356300000000     0.617200000000    -0.191703   
N63      N      0.961080000000     0.068280000000     0.803120000000    -0.0324038  
N64      N      0.992910000000     0.856670000000     0.852260000000    -0.203459   
N65      N      0.989340000000     0.616980000000     0.614450000000    -0.188406   
N66      N      0.934540000000     0.822560000000     0.876130000000    -0.0407933  
N67      N      0.982780000000     0.613750000000     0.354780000000    -0.199223   
N68      N      0.988330000000     0.853670000000     0.113940000000    -0.192023   
N69      N      0.936200000000     0.575570000000     0.313470000000    -0.0318573  
N70      N      0.988100000000     0.353870000000     0.356010000000    -0.198969   
N71      N      0.980020000000     0.114010000000     0.116070000000    -0.189839   
N72      N      0.012820000000     0.400280000000     0.305010000000    -0.0304575  
O1       O      0.982280000000     0.096730000000     0.050270000000    -0.373729   
O2       O      0.989220000000     0.871650000000     0.048470000000    -0.366712   
O3       O      0.919150000000     0.984900000000     0.097030000000    -0.374607   
O4       O      0.048030000000     0.984550000000     0.098260000000    -0.356357   
O5       O      0.096460000000     0.985660000000     0.051230000000    -0.376656   
O6       O      0.871860000000     0.985250000000     0.048840000000    -0.354607   
O7       O      0.984050000000     0.919140000000     0.096600000000    -0.372677   
O8       O      0.981040000000     0.048510000000     0.097790000000    -0.362165   
O9       O      0.024350000000     0.944360000000     0.024980000000    -0.504089   
O10      O      0.943670000000     0.023900000000     0.024880000000    -0.504315   
O11      O      0.944850000000     0.943510000000     0.024630000000    -0.657903   
O12      O      0.024060000000     0.025100000000     0.026010000000    -0.652278   
O13      O      0.984390000000     0.873390000000     0.917640000000    -0.351886   
O14      O      0.983410000000     0.097400000000     0.920920000000    -0.376562   
O15      O      0.872100000000     0.918480000000     0.989700000000    -0.369656   
O16      O      0.097430000000     0.920630000000     0.986420000000    -0.375525   
O17      O      0.096440000000     0.050220000000     0.986760000000    -0.374029   
O18      O      0.871430000000     0.047280000000     0.983130000000    -0.363601   
O19      O      0.921390000000     0.981040000000     0.872150000000    -0.362003   
O20      O      0.050820000000     0.987720000000     0.873800000000    -0.368083   
O21      O      0.873220000000     0.981020000000     0.919750000000    -0.374552   
O22      O      0.098200000000     0.987790000000     0.922160000000    -0.375542   
O23      O      0.920420000000     0.871170000000     0.989190000000    -0.350974   
O24      O      0.918550000000     0.095880000000     0.985550000000    -0.373372   
O25      O      0.048180000000     0.097700000000     0.985130000000    -0.373989   
O26      O      0.049900000000     0.872400000000     0.983650000000    -0.372583   
O27      O      0.993020000000     0.921770000000     0.870840000000    -0.374124   
O28      O      0.984760000000     0.049560000000     0.873250000000    -0.356149   
O29      O      0.024930000000     0.025260000000     0.945680000000    -0.504693   
O30      O      0.944800000000     0.943580000000     0.943580000000    -0.504442   
O31      O      0.944540000000     0.024020000000     0.944850000000    -0.653766   
O32      O      0.025740000000     0.944930000000     0.945340000000    -0.655684   
O33      O      0.986210000000     0.371710000000     0.421880000000    -0.375007   
O34      O      0.987040000000     0.596630000000     0.420180000000    -0.364615   
O35      O      0.919650000000     0.480970000000     0.374440000000    -0.343274   
O36      O      0.048300000000     0.487980000000     0.372820000000    -0.344863   
O37      O      0.096950000000     0.488630000000     0.419660000000    -0.370824   
O38      O      0.872150000000     0.481430000000     0.422460000000    -0.370039   
O39      O      0.981040000000     0.548410000000     0.372950000000    -0.345086   
O40      O      0.986080000000     0.419530000000     0.374130000000    -0.344917   
O41      O      0.024970000000     0.525030000000     0.444810000000    -0.511025   
O42      O      0.945040000000     0.444160000000     0.446520000000    -0.510278   
O43      O      0.944620000000     0.524760000000     0.445750000000    -0.662747   
O44      O      0.025680000000     0.444780000000     0.445440000000    -0.658085   
O45      O      0.987380000000     0.598350000000     0.549160000000    -0.372023   
O46      O      0.987710000000     0.373450000000     0.551440000000    -0.375434   
O47      O      0.872750000000     0.549280000000     0.484710000000    -0.373486   
O48      O      0.097550000000     0.550410000000     0.484310000000    -0.355049   
O49      O      0.098560000000     0.421520000000     0.484610000000    -0.376851   
O50      O      0.873700000000     0.419720000000     0.487980000000    -0.354265   
O51      O      0.921940000000     0.486330000000     0.598960000000    -0.374069   
O52      O      0.051220000000     0.486640000000     0.597380000000    -0.354983   
O53      O      0.873710000000     0.487240000000     0.551450000000    -0.366115   
O54      O      0.098670000000     0.486000000000     0.549280000000    -0.364299   
O55      O      0.920560000000     0.597050000000     0.484780000000    -0.356512   
O56      O      0.921630000000     0.372070000000     0.487490000000    -0.375591   
O57      O      0.051200000000     0.373170000000     0.486850000000    -0.373443   
O58      O      0.049610000000     0.597980000000     0.484230000000    -0.372228   
O59      O      0.985620000000     0.551120000000     0.597670000000    -0.362421   
O60      O      0.988430000000     0.421770000000     0.598890000000    -0.372048   
O61      O      0.026210000000     0.445710000000     0.525770000000    -0.507173   
O62      O      0.945460000000     0.525610000000     0.526010000000    -0.510594   
O63      O      0.946030000000     0.445050000000     0.526710000000    -0.654535   
O64      O      0.025970000000     0.525830000000     0.525260000000    -0.659022   
O65      O      0.597460000000     0.982040000000     0.420800000000    -0.374442   
O66      O      0.372820000000     0.988500000000     0.420940000000    -0.369392   
O67      O      0.485010000000     0.921240000000     0.372710000000    -0.355847   
O68      O      0.486110000000     0.050350000000     0.373760000000    -0.374504   
O69      O      0.485550000000     0.097850000000     0.422020000000    -0.376525   
O70      O      0.483810000000     0.872870000000     0.419870000000    -0.376563   
O71      O      0.420670000000     0.987870000000     0.373060000000    -0.365412   
O72      O      0.549680000000     0.983990000000     0.372900000000    -0.372239   
O73      O      0.445700000000     0.026030000000     0.445740000000    -0.509601   
O74      O      0.524510000000     0.944270000000     0.444990000000    -0.510015   
O75      O      0.444430000000     0.945540000000     0.444870000000    -0.658089   
O76      O      0.525990000000     0.024860000000     0.445630000000    -0.655282   
O77      O      0.373150000000     0.983690000000     0.550110000000    -0.346406   
O78      O      0.597520000000     0.982050000000     0.549680000000    -0.357914   
O79      O      0.418680000000     0.873440000000     0.484530000000    -0.374733   
O80      O      0.422150000000     0.098320000000     0.487670000000    -0.37615    
O81      O      0.551630000000     0.096100000000     0.486930000000    -0.375264   
O82      O      0.547770000000     0.870990000000     0.484360000000    -0.37708    
O83      O      0.483100000000     0.919050000000     0.597300000000    -0.354912   
O84      O      0.487260000000     0.048280000000     0.598720000000    -0.373552   
O85      O      0.481800000000     0.871590000000     0.549220000000    -0.374893   
O86      O      0.488730000000     0.096550000000     0.551240000000    -0.375211   
O87      O      0.371700000000     0.922160000000     0.483360000000    -0.363452   
O88      O      0.596230000000     0.918260000000     0.483010000000    -0.363496   
O89      O      0.598740000000     0.047450000000     0.485700000000    -0.37121    
O90      O      0.373980000000     0.050930000000     0.486820000000    -0.354769   
O91      O      0.420710000000     0.983660000000     0.598100000000    -0.36457    
O92      O      0.550160000000     0.981930000000     0.597880000000    -0.372756   
O93      O      0.526010000000     0.023870000000     0.525980000000    -0.508222   
O94      O      0.444500000000     0.944900000000     0.525350000000    -0.506546   
O95      O      0.524790000000     0.943410000000     0.525320000000    -0.656042   
O96      O      0.445700000000     0.025170000000     0.526270000000    -0.655963   
O97      O      0.418830000000     0.373520000000     0.986290000000    -0.362793   
O98      O      0.422370000000     0.598330000000     0.983960000000    -0.357079   
O99      O      0.371950000000     0.487300000000     0.048940000000    -0.368751   
O100     O      0.374350000000     0.487640000000     0.919470000000    -0.363891   
O101     O      0.423000000000     0.484690000000     0.872450000000    -0.374725   
O102     O      0.419260000000     0.487830000000     0.097370000000    -0.365823   
O103     O      0.373840000000     0.551350000000     0.983960000000    -0.374947   
O104     O      0.372070000000     0.422250000000     0.985060000000    -0.355221   
O105     O      0.446620000000     0.525070000000     0.944600000000    -0.50976    
O106     O      0.443890000000     0.445880000000     0.026090000000    -0.508168   
O107     O      0.445220000000     0.526350000000     0.025220000000    -0.656872   
O108     O      0.445330000000     0.444920000000     0.945830000000    -0.65656    
O109     O      0.551210000000     0.596390000000     0.988840000000    -0.374418   
O110     O      0.548280000000     0.371380000000     0.988410000000    -0.37127    
O111     O      0.486900000000     0.550530000000     0.097480000000    -0.37406    
O112     O      0.488330000000     0.547810000000     0.872680000000    -0.376604   
O113     O      0.486070000000     0.418530000000     0.874420000000    -0.374369   
O114     O      0.481830000000     0.421630000000     0.099010000000    -0.357646   
O115     O      0.596750000000     0.485520000000     0.052520000000    -0.361909   
O116     O      0.599150000000     0.481680000000     0.923370000000    -0.355859   
O117     O      0.548150000000     0.486590000000     0.099630000000    -0.371089   
O118     O      0.552130000000     0.480660000000     0.874860000000    -0.377022   
O119     O      0.487820000000     0.598100000000     0.049330000000    -0.361793   
O120     O      0.481300000000     0.373110000000     0.052020000000    -0.373808   
O121     O      0.485270000000     0.371740000000     0.923100000000    -0.355364   
O122     O      0.487490000000     0.596420000000     0.919840000000    -0.372797   
O123     O      0.598950000000     0.548370000000     0.989550000000    -0.368009   
O124     O      0.596630000000     0.418640000000     0.988980000000    -0.346166   
O125     O      0.525750000000     0.443610000000     0.947260000000    -0.507942   
O126     O      0.525240000000     0.524790000000     0.026000000000    -0.511382   
O127     O      0.524600000000     0.444590000000     0.027430000000    -0.65656    
O128     O      0.527110000000     0.524240000000     0.945850000000    -0.654561   
O129     O      0.470380000000     0.421300000000     0.199950000000    -0.113595   
O130     O      0.422970000000     0.416180000000     0.153560000000    -0.101216   
O131     O      0.429580000000     0.915520000000     0.315300000000    -0.10754    
O132     O      0.479160000000     0.920230000000     0.271190000000    -0.112939   
O133     O      0.473150000000     0.916430000000     0.698540000000    -0.11205    
O134     O      0.425140000000     0.912620000000     0.652650000000    -0.095215   
O135     O      0.481310000000     0.271000000000     0.923330000000    -0.112015   
O136     O      0.430360000000     0.313530000000     0.918650000000    -0.103355   
O137     O      0.819260000000     0.412770000000     0.546180000000    -0.107259   
O138     O      0.772470000000     0.416910000000     0.499070000000    -0.112417   
O139     O      0.918670000000     0.697770000000     0.474250000000    -0.109486   
O140     O      0.915380000000     0.651730000000     0.426330000000    -0.0984251  
O141     O      0.273080000000     0.053450000000     0.499290000000    -0.0981285  
O142     O      0.320310000000     0.057550000000     0.545960000000    -0.094624   
O143     O      0.153120000000     0.558210000000     0.541550000000    -0.102097   
O144     O      0.198840000000     0.553400000000     0.493460000000    -0.1119     
O145     O      0.917170000000     0.467260000000     0.273470000000    -0.0761193  
O146     O      0.913300000000     0.421270000000     0.321360000000    -0.0852333  
O147     O      0.047980000000     0.499010000000     0.271710000000    -0.0781303  
O148     O      0.051440000000     0.546530000000     0.318110000000    -0.0872058  
O149     O      0.059050000000     0.545770000000     0.651010000000    -0.1021     
O150     O      0.054250000000     0.499220000000     0.698300000000    -0.111656   
O151     O      0.700690000000     0.470460000000     0.922410000000    -0.0999946  
O152     O      0.653890000000     0.423360000000     0.918430000000    -0.0872471  
O153     O      0.900390000000     0.813780000000     0.933960000000    -0.0551555  
O154     O      0.923220000000     0.776290000000     0.984960000000    -0.102403   
O155     O      0.697560000000     0.414500000000     0.006680000000    -0.0930272  
O156     O      0.647540000000     0.408900000000     0.050160000000    -0.105593   
O157     O      0.415870000000     0.654480000000     0.040770000000    -0.106852   
O158     O      0.421200000000     0.699780000000     0.992340000000    -0.113769   
O159     O      0.271220000000     0.422190000000     0.976320000000    -0.111405   
O160     O      0.316360000000     0.416910000000     0.927730000000    -0.10499    
O161     O      0.651060000000     0.922600000000     0.555380000000    -0.106241   
O162     O      0.698300000000     0.969190000000     0.550550000000    -0.112721   
O163     O      0.272050000000     0.970670000000     0.552070000000    -0.093672   
O164     O      0.319530000000     0.924350000000     0.557080000000    -0.0947426  
O165     O      0.051480000000     0.039040000000     0.156690000000    -0.105293   
O166     O      0.048980000000     0.988290000000     0.199640000000    -0.111874   
O167     O      0.815580000000     0.042110000000     0.054960000000    -0.0982406  
O168     O      0.770540000000     0.993370000000     0.050370000000    -0.114287   
O169     O      0.976630000000     0.051210000000     0.772200000000    -0.110524   
O170     O      0.927800000000     0.054790000000     0.817240000000    -0.106705   
O171     O      0.932910000000     0.806800000000     0.911280000000    -0.0587273  
O172     O      0.904850000000     0.843560000000     0.863040000000    -0.0939114  
O173     O      0.933910000000     0.558510000000     0.278930000000    -0.0842955  
O174     O      0.909410000000     0.567590000000     0.340090000000    -0.0978561  
O175     O      0.999730000000     0.417530000000     0.273080000000    -0.0772248  
O176     O      0.045540000000     0.412960000000     0.321080000000    -0.0932503  
Zr1      Zr     0.983880000000     0.984110000000     0.064860000000     1.43912    
Zr2      Zr     0.985030000000     0.904160000000     0.983970000000     1.4332     
Zr3      Zr     0.983780000000     0.064460000000     0.985420000000     1.42579    
Zr4      Zr     0.904800000000     0.983100000000     0.984510000000     1.43652    
Zr5      Zr     0.064610000000     0.985280000000     0.986210000000     1.42627    
Zr6      Zr     0.985780000000     0.984780000000     0.905240000000     1.43749    
Zr7      Zr     0.984420000000     0.484290000000     0.406140000000     1.46516    
Zr8      Zr     0.985320000000     0.564950000000     0.485100000000     1.44479    
Zr9      Zr     0.986120000000     0.405040000000     0.486380000000     1.42666    
Zr10     Zr     0.905560000000     0.484700000000     0.486610000000     1.4411     
Zr11     Zr     0.065460000000     0.485670000000     0.484880000000     1.44352    
Zr12     Zr     0.986210000000     0.485990000000     0.565710000000     1.4382     
Zr13     Zr     0.485220000000     0.985570000000     0.405650000000     1.44003    
Zr14     Zr     0.405490000000     0.986000000000     0.485470000000     1.44884    
Zr15     Zr     0.564930000000     0.983430000000     0.485290000000     1.43952    
Zr16     Zr     0.483830000000     0.904740000000     0.484850000000     1.43348    
Zr17     Zr     0.486390000000     0.064750000000     0.486370000000     1.42948    
Zr18     Zr     0.485370000000     0.983970000000     0.565520000000     1.43814    
Zr19     Zr     0.405550000000     0.486340000000     0.984800000000     1.43957    
Zr20     Zr     0.486480000000     0.564830000000     0.984970000000     1.43884    
Zr21     Zr     0.484170000000     0.405020000000     0.987190000000     1.44006    
Zr22     Zr     0.484230000000     0.485800000000     0.065800000000     1.44469    
Zr23     Zr     0.486970000000     0.483700000000     0.906170000000     1.42986    
Zr24     Zr     0.565480000000     0.483950000000     0.987340000000     1.44509    


