data_structure

_audit_creation_method RASPA-1.0
_audit_creation_date 2023-5-19
_audit_author_name 'Poobodin Mano'

_cell_length_a    21.5261
_cell_length_b    21.5147
_cell_length_c    21.5203
_cell_angle_alpha 90
_cell_angle_beta  90
_cell_angle_gamma 90
_cell_volume      9966.64

_symmetry_cell_setting          triclinic
_symmetry_space_group_name_Hall 'P 1'
_symmetry_space_group_name_H-M  'P 1'
_symmetry_Int_Tables_number     1

_symmetry_equiv_pos_as_xyz 'x,y,z'

loop_
_atom_site_label
_atom_site_type_symbol
_atom_site_fract_x
_atom_site_fract_y
_atom_site_fract_z
_atom_site_charge
C1       C      0.967360000000     0.134710000000     0.133040000000     0.4047     
C2       C      0.977940000000     0.817350000000     0.132800000000     0.408003   
C3       C      0.813100000000     0.963720000000     0.130620000000     0.391818   
C4       C      0.130320000000     0.969300000000     0.137110000000     0.396426   
C5       C      0.978390000000     0.818580000000     0.814730000000     0.400798   
C6       C      0.980150000000     0.135360000000     0.815900000000     0.408598   
C7       C      0.818830000000     0.814370000000     0.970900000000     0.397758   
C8       C      0.136250000000     0.819440000000     0.972390000000     0.405555   
C9       C      0.130370000000     0.137870000000     0.984520000000     0.397048   
C10      C      0.813190000000     0.131720000000     0.968020000000     0.404968   
C11      C      0.819770000000     0.962070000000     0.812470000000     0.396672   
C12      C      0.137730000000     0.982920000000     0.819360000000     0.407338   
C13      C      0.966710000000     0.316570000000     0.316830000000     0.400541   
C14      C      0.976080000000     0.633510000000     0.313910000000     0.400938   
C15      C      0.814190000000     0.475070000000     0.316900000000     0.398843   
C16      C      0.130660000000     0.470340000000     0.311580000000     0.396592   
C17      C      0.975000000000     0.635350000000     0.632690000000     0.407396   
C18      C      0.976760000000     0.317770000000     0.632760000000     0.397603   
C19      C      0.820400000000     0.641440000000     0.474940000000     0.394077   
C20      C      0.134640000000     0.634840000000     0.463240000000     0.397207   
C21      C      0.131670000000     0.315970000000     0.471770000000     0.404376   
C22      C      0.813260000000     0.321390000000     0.476200000000     0.405798   
C23      C      0.818860000000     0.478680000000     0.634800000000     0.400147   
C24      C      0.135540000000     0.475570000000     0.630150000000     0.398715   
C25      C      0.632750000000     0.961350000000     0.314740000000     0.403748   
C26      C      0.312950000000     0.970830000000     0.319950000000     0.405523   
C27      C      0.476930000000     0.816430000000     0.316040000000     0.399387   
C28      C      0.470880000000     0.133900000000     0.314760000000     0.399437   
C29      C      0.319780000000     0.976210000000     0.635990000000     0.39835    
C30      C      0.638890000000     0.967400000000     0.628600000000     0.400292   
C31      C      0.315960000000     0.818190000000     0.466100000000     0.403842   
C32      C      0.316010000000     0.134420000000     0.475150000000     0.397135   
C33      C      0.632490000000     0.136720000000     0.472670000000     0.399287   
C34      C      0.635390000000     0.821560000000     0.473240000000     0.413601   
C35      C      0.471810000000     0.816880000000     0.633270000000     0.40806    
C36      C      0.478080000000     0.134460000000     0.632850000000     0.399777   
C37      C      0.311670000000     0.321790000000     0.980220000000     0.411261   
C38      C      0.319960000000     0.638020000000     0.971860000000     0.398656   
C39      C      0.312390000000     0.471280000000     0.128130000000     0.408762   
C40      C      0.318600000000     0.480230000000     0.812240000000     0.408242   
C41      C      0.637090000000     0.630680000000     0.976190000000     0.40695    
C42      C      0.629750000000     0.313090000000     0.972500000000     0.398939   
C43      C      0.479930000000     0.634740000000     0.132520000000     0.406986   
C44      C      0.476610000000     0.633200000000     0.814770000000     0.399074   
C45      C      0.471720000000     0.315690000000     0.816470000000     0.407714   
C46      C      0.466280000000     0.317470000000     0.133630000000     0.408938   
C47      C      0.631060000000     0.469330000000     0.134870000000     0.405412   
C48      C      0.634930000000     0.471380000000     0.816460000000     0.406004   
C49      C      0.476640000000     0.165140000000     0.208610000000     0.0313158  
C50      C      0.456870000000     0.239800000000     0.286090000000     0.00888688 
C51      C      0.474610000000     0.211530000000     0.163450000000     0.0361184  
C52      C      0.452080000000     0.286310000000     0.240780000000     0.139377   
C53      C      0.474200000000     0.709900000000     0.285220000000     0.0323487  
C54      C      0.486070000000     0.787970000000     0.209590000000     0.00817656 
C55      C      0.475650000000     0.664680000000     0.238780000000     0.0349331  
C56      C      0.489740000000     0.742880000000     0.162830000000     0.131184   
C57      C      0.481560000000     0.664340000000     0.708380000000     0.0347246  
C58      C      0.465550000000     0.739490000000     0.786190000000     0.0085718  
C59      C      0.479090000000     0.710750000000     0.663130000000     0.0396207  
C60      C      0.461100000000     0.786170000000     0.741040000000     0.133007   
C61      C      0.479730000000     0.240850000000     0.663870000000     0.0357336  
C62      C      0.469260000000     0.162470000000     0.739420000000     0.00924318 
C63      C      0.476960000000     0.285930000000     0.710310000000     0.0376558  
C64      C      0.464270000000     0.207400000000     0.786190000000     0.134041   
C65      C      0.738700000000     0.168340000000     0.470860000000     0.0336616  
C66      C      0.659970000000     0.243850000000     0.477740000000     0.00980206 
C67      C      0.783540000000     0.215090000000     0.472440000000     0.0389459  
C68      C      0.704650000000     0.291110000000     0.480790000000     0.134384   
C69      C      0.714250000000     0.671500000000     0.470620000000     0.0306773  
C70      C      0.790980000000     0.749310000000     0.478440000000     0.00777475 
C71      C      0.668300000000     0.716790000000     0.470090000000     0.037918   
C72      C      0.744750000000     0.795820000000     0.478590000000     0.137322   
C73      C      0.284540000000     0.240830000000     0.477060000000     0.032639   
C74      C      0.208930000000     0.162310000000     0.469510000000     0.00898973 
C75      C      0.237920000000     0.285900000000     0.475550000000     0.0373877  
C76      C      0.161830000000     0.207250000000     0.465980000000     0.135797   
C77      C      0.241170000000     0.665500000000     0.460660000000     0.0309152  
C78      C      0.163110000000     0.741520000000     0.451690000000     0.00844796 
C79      C      0.286280000000     0.712050000000     0.460820000000     0.0350573  
C80      C      0.208110000000     0.788720000000     0.450380000000     0.131703   
C81      C      0.783440000000     0.473090000000     0.210450000000     0.0351018  
C82      C      0.707370000000     0.467060000000     0.288700000000     0.00847313 
C83      C      0.737210000000     0.470160000000     0.165200000000     0.0390684  
C84      C      0.660640000000     0.462390000000     0.243520000000     0.134391   
C85      C      0.236710000000     0.472830000000     0.280270000000     0.0338577  
C86      C      0.158970000000     0.458690000000     0.204730000000     0.00907413 
C87      C      0.281760000000     0.473060000000     0.233900000000     0.0405567  
C88      C      0.204190000000     0.457050000000     0.157620000000     0.135523   
C89      C      0.166410000000     0.473500000000     0.736550000000     0.0363211  
C90      C      0.242330000000     0.482590000000     0.658420000000     0.00870166 
C91      C      0.212640000000     0.475740000000     0.781830000000     0.0392222  
C92      C      0.289030000000     0.486610000000     0.703600000000     0.133025   
C93      C      0.788140000000     0.471850000000     0.741460000000     0.0380881  
C94      C      0.712190000000     0.480090000000     0.663400000000     0.0114281  
C95      C      0.741450000000     0.469510000000     0.786570000000     0.0394568  
C96      C      0.665080000000     0.475860000000     0.707880000000     0.135013   
C97      C      0.712810000000     0.782760000000     0.965420000000     0.0334317  
C98      C      0.790830000000     0.707480000000     0.979340000000     0.008886   
C99      C      0.667660000000     0.736400000000     0.967540000000     0.0386709  
C100     C      0.745640000000     0.660690000000     0.983480000000     0.132745   
C101     C      0.660530000000     0.206500000000     0.977740000000     0.0319543  
C102     C      0.735240000000     0.283820000000     0.957700000000     0.00872119 
C103     C      0.706980000000     0.161210000000     0.975680000000     0.0369241  
C104     C      0.781710000000     0.238540000000     0.952960000000     0.135518   
C105     C      0.289270000000     0.744650000000     0.977730000000     0.0325904  
C106     C      0.213860000000     0.666960000000     0.962410000000     0.00921676 
C107     C      0.242670000000     0.789860000000     0.977270000000     0.0385879  
C108     C      0.167110000000     0.711990000000     0.959710000000     0.134901   
C109     C      0.235930000000     0.170120000000     0.994980000000     0.0380431  
C110     C      0.157690000000     0.245630000000     0.984910000000     0.0132648  
C111     C      0.280870000000     0.216770000000     0.994100000000     0.0431364  
C112     C      0.202480000000     0.293120000000     0.982870000000     0.144999   
C113     C      0.714100000000     0.951020000000     0.780450000000     0.0331206  
C114     C      0.792700000000     0.956470000000     0.704940000000     0.00860852 
C115     C      0.669190000000     0.952250000000     0.733690000000     0.0342516  
C116     C      0.748040000000     0.959160000000     0.657350000000     0.136186   
C117     C      0.213620000000     0.972100000000     0.667400000000     0.0326672  
C118     C      0.291310000000     0.988770000000     0.742440000000     0.0134889  
C119     C      0.168330000000     0.974980000000     0.713620000000     0.0388673  
C120     C      0.245940000000     0.993640000000     0.789100000000     0.135027   
C121     C      0.236060000000     0.958570000000     0.168670000000     0.0318368  
C122     C      0.158400000000     0.969420000000     0.244650000000     0.0109581  
C123     C      0.281360000000     0.958700000000     0.214990000000     0.0358221  
C124     C      0.203490000000     0.969230000000     0.291950000000     0.140267   
C125     C      0.706380000000     0.958310000000     0.161240000000     0.0309554  
C126     C      0.784700000000     0.945810000000     0.236270000000     0.006296   
C127     C      0.661430000000     0.956460000000     0.208100000000     0.0348893  
C128     C      0.740020000000     0.942760000000     0.283650000000     0.134104   
C129     C      0.969860000000     0.211450000000     0.663830000000     0.0338122  
C130     C      0.990070000000     0.288460000000     0.738770000000     0.00966312 
C131     C      0.971570000000     0.165960000000     0.710060000000     0.0395224  
C132     C      0.994420000000     0.242810000000     0.785160000000     0.141025   
C133     C      0.984320000000     0.787680000000     0.708330000000     0.0334066  
C134     C      0.967970000000     0.712340000000     0.785850000000     0.0126228  
C135     C      0.982570000000     0.741360000000     0.662960000000     0.0366781  
C136     C      0.964340000000     0.665750000000     0.740600000000     0.135627   
C137     C      0.976830000000     0.664290000000     0.207360000000     0.0336854  
C138     C      0.977960000000     0.740270000000     0.285990000000     0.00864934 
C139     C      0.977990000000     0.710920000000     0.162350000000     0.0368623  
C140     C      0.979980000000     0.787320000000     0.241360000000     0.133956   
C141     C      0.962440000000     0.209950000000     0.285960000000     0.0362208  
C142     C      0.966870000000     0.288360000000     0.209970000000     0.00915194 
C143     C      0.963180000000     0.164780000000     0.239360000000     0.0381586  
C144     C      0.968630000000     0.243530000000     0.162940000000     0.134459   
H1       H      0.886470000000     0.884870000000     0.060880000000     0.216217   
H2       H      0.060270000000     0.065410000000     0.066030000000     0.215755   
H3       H      0.885930000000     0.062940000000     0.882860000000     0.215037   
H4       H      0.067000000000     0.889060000000     0.886780000000     0.216898   
H5       H      0.886160000000     0.567100000000     0.385110000000     0.214296   
H6       H      0.060770000000     0.385850000000     0.384250000000     0.216604   
H7       H      0.885650000000     0.389930000000     0.563830000000     0.216442   
H8       H      0.066430000000     0.565370000000     0.560960000000     0.212555   
H9       H      0.386710000000     0.887410000000     0.386590000000     0.217627   
H10      H      0.562920000000     0.065860000000     0.382600000000     0.212894   
H11      H      0.565010000000     0.887220000000     0.560940000000     0.216976   
H12      H      0.388090000000     0.064540000000     0.564710000000     0.214756   
H13      H      0.385980000000     0.566560000000     0.061970000000     0.21431    
H14      H      0.384540000000     0.387340000000     0.884510000000     0.218821   
H15      H      0.560490000000     0.384830000000     0.064250000000     0.21591    
H16      H      0.566070000000     0.562240000000     0.885870000000     0.215157   
H17      H      0.483330000000     0.197540000000     0.115830000000     0.0423794  
H18      H      0.486010000000     0.118010000000     0.193430000000     0.0406733  
H19      H      0.447240000000     0.252480000000     0.333920000000     0.06673    
H20      H      0.470370000000     0.616720000000     0.253340000000     0.047925   
H21      H      0.468390000000     0.694430000000     0.332820000000     0.0426481  
H22      H      0.492120000000     0.836200000000     0.196150000000     0.0624339  
H23      H      0.486030000000     0.696520000000     0.615300000000     0.0447874  
H24      H      0.489640000000     0.617020000000     0.693090000000     0.0628862  
H25      H      0.457950000000     0.752660000000     0.834260000000     0.0667658  
H26      H      0.480780000000     0.333980000000     0.695730000000     0.0604265  
H27      H      0.485220000000     0.256500000000     0.616290000000     0.0483912  
H28      H      0.464120000000     0.114110000000     0.752800000000     0.0674743  
H29      H      0.831650000000     0.200480000000     0.469450000000     0.0482436  
H30      H      0.754640000000     0.120650000000     0.467300000000     0.0593887  
H31      H      0.611520000000     0.257300000000     0.481220000000     0.0670239  
H32      H      0.620680000000     0.700770000000     0.466250000000     0.0431253  
H33      H      0.699370000000     0.623460000000     0.467300000000     0.0471939  
H34      H      0.839020000000     0.763860000000     0.482760000000     0.0651553  
H35      H      0.252570000000     0.333980000000     0.479040000000     0.0446473  
H36      H      0.332200000000     0.256650000000     0.480980000000     0.0456163  
H37      H      0.195450000000     0.113880000000     0.465790000000     0.0783885  
H38      H      0.334220000000     0.697210000000     0.465170000000     0.0423485  
H39      H      0.256740000000     0.617730000000     0.464510000000     0.0426396  
H40      H      0.114780000000     0.755300000000     0.447840000000     0.0656185  
H41      H      0.752220000000     0.471430000000     0.117160000000     0.0581983  
H42      H      0.831210000000     0.476430000000     0.194780000000     0.0486289  
H43      H      0.693730000000     0.463590000000     0.337110000000     0.0724731  
H44      H      0.329320000000     0.480610000000     0.248660000000     0.0532923  
H45      H      0.252230000000     0.479260000000     0.327780000000     0.0449367  
H46      H      0.110740000000     0.453160000000     0.191190000000     0.0664102  
H47      H      0.197810000000     0.471900000000     0.829840000000     0.0592148  
H48      H      0.118740000000     0.468710000000     0.752120000000     0.0553501  
H49      H      0.255960000000     0.487050000000     0.610090000000     0.0623168  
H50      H      0.756110000000     0.465700000000     0.834630000000     0.053662   
H51      H      0.835950000000     0.468910000000     0.756990000000     0.0595887  
H52      H      0.698220000000     0.484380000000     0.615170000000     0.0748513  
H53      H      0.619850000000     0.750920000000     0.961210000000     0.0519089  
H54      H      0.697260000000     0.830190000000     0.958460000000     0.0441466  
H55      H      0.839030000000     0.694210000000     0.985730000000     0.066751   
H56      H      0.693130000000     0.113550000000     0.984480000000     0.0413852  
H57      H      0.613370000000     0.191490000000     0.987130000000     0.045686   
H58      H      0.748060000000     0.331620000000     0.947990000000     0.0686039  
H59      H      0.256900000000     0.837680000000     0.984430000000     0.0479408  
H60      H      0.336800000000     0.759870000000     0.984580000000     0.0506974  
H61      H      0.200470000000     0.618980000000     0.954520000000     0.0731608  
H62      H      0.328850000000     0.202090000000     0.998590000000     0.0524128  
H63      H      0.251720000000     0.122520000000     0.999880000000     0.0529423  
H64      H      0.109490000000     0.259070000000     0.979430000000     0.0898158  
H65      H      0.621070000000     0.949670000000     0.748350000000     0.0480316  
H66      H      0.698140000000     0.947920000000     0.828140000000     0.0432514  
H67      H      0.841140000000     0.960330000000     0.691520000000     0.063265   
H68      H      0.120580000000     0.968080000000     0.699120000000     0.0446977  
H69      H      0.198230000000     0.963890000000     0.620120000000     0.0537242  
H70      H      0.339380000000     0.996450000000     0.755490000000     0.0735234  
H71      H      0.329220000000     0.954060000000     0.199960000000     0.0418478  
H72      H      0.251520000000     0.953790000000     0.120950000000     0.0446475  
H73      H      0.110450000000     0.976560000000     0.258280000000     0.0771464  
H74      H      0.613400000000     0.961490000000     0.193770000000     0.0414442  
H75      H      0.690650000000     0.964170000000     0.113740000000     0.0422028  
H76      H      0.833110000000     0.941580000000     0.249670000000     0.073218   
H77      H      0.962600000000     0.118440000000     0.695870000000     0.0457741  
H78      H      0.960500000000     0.196500000000     0.616630000000     0.0502911  
H79      H      0.999870000000     0.336200000000     0.751710000000     0.0699902  
H80      H      0.989640000000     0.755740000000     0.615180000000     0.044758   
H81      H      0.991940000000     0.835130000000     0.693130000000     0.044378   
H82      H      0.959970000000     0.699020000000     0.833820000000     0.0754546  
H83      H      0.977430000000     0.696230000000     0.114160000000     0.051031   
H84      H      0.975900000000     0.616430000000     0.191590000000     0.0478476  
H85      H      0.978940000000     0.754130000000     0.334460000000     0.0667694  
H86      H      0.961020000000     0.116640000000     0.254110000000     0.0508389  
H87      H      0.959970000000     0.194300000000     0.333780000000     0.0558197  
H88      H      0.969310000000     0.336780000000     0.196070000000     0.0662727  
N1       N      0.468660000000     0.179380000000     0.270040000000    -0.168722   
N2       N      0.463650000000     0.272420000000     0.179160000000    -0.182673   
N3       N      0.427770000000     0.345470000000     0.259660000000    -0.0269274  
N4       N      0.478670000000     0.771610000000     0.270590000000    -0.169154   
N5       N      0.482380000000     0.680640000000     0.177320000000    -0.182564   
N6       N      0.505900000000     0.763580000000     0.101550000000    -0.0276332  
N7       N      0.475140000000     0.678710000000     0.769970000000    -0.165921   
N8       N      0.469920000000     0.771920000000     0.678990000000    -0.183874   
N9       N      0.441660000000     0.846730000000     0.761200000000    -0.0279937  
N10      N      0.476440000000     0.179080000000     0.678440000000    -0.168793   
N11      N      0.470360000000     0.269770000000     0.771720000000    -0.181916   
N12      N      0.448140000000     0.186290000000     0.847400000000    -0.0272826  
N13      N      0.676870000000     0.182650000000     0.473350000000    -0.167028   
N14      N      0.767170000000     0.276690000000     0.476950000000    -0.183062   
N15      N      0.682920000000     0.353140000000     0.491850000000    -0.0279524  
N16      N      0.775640000000     0.687320000000     0.474610000000    -0.165989   
N17      N      0.682790000000     0.778740000000     0.473980000000    -0.185187   
N18      N      0.763920000000     0.859760000000     0.488630000000    -0.0342206  
N19      N      0.270130000000     0.178960000000     0.474320000000    -0.166608   
N20      N      0.176330000000     0.269760000000     0.470630000000    -0.182714   
N21      N      0.100050000000     0.185880000000     0.452920000000    -0.0265864  
N22      N      0.179440000000     0.680260000000     0.458380000000    -0.167991   
N23      N      0.270200000000     0.773840000000     0.458660000000    -0.18318    
N24      N      0.186240000000     0.851900000000     0.447100000000    -0.0294236  
N25      N      0.768570000000     0.472370000000     0.272260000000    -0.167844   
N26      N      0.675540000000     0.466690000000     0.181100000000    -0.18154    
N27      N      0.599030000000     0.447760000000     0.264420000000    -0.027289   
N28      N      0.175140000000     0.467160000000     0.265760000000    -0.167649   
N29      N      0.266140000000     0.466630000000     0.172350000000    -0.181413   
N30      N      0.182650000000     0.451650000000     0.094570000000    -0.0303393  
N31      N      0.181190000000     0.476660000000     0.674790000000    -0.168237   
N32      N      0.274170000000     0.481520000000     0.765970000000    -0.181961   
N33      N      0.350720000000     0.500820000000     0.682710000000    -0.0274613  
N34      N      0.773520000000     0.477330000000     0.679810000000    -0.165365   
N35      N      0.679710000000     0.471680000000     0.770420000000    -0.182638   
N36      N      0.602360000000     0.474520000000     0.685460000000    -0.0261431  
N37      N      0.774450000000     0.768410000000     0.971320000000    -0.168369   
N38      N      0.683400000000     0.675160000000     0.976370000000    -0.181488   
N39      N      0.766240000000     0.599580000000     0.000310000000    -0.0262682  
N40      N      0.674850000000     0.267940000000     0.969870000000    -0.167643   
N41      N      0.767880000000     0.176950000000     0.964890000000    -0.183325   
N42      N      0.841170000000     0.257650000000     0.929330000000    -0.0276039  
N43      N      0.274750000000     0.683100000000     0.971030000000    -0.1672     
N44      N      0.181360000000     0.773950000000     0.969330000000    -0.183154   
N45      N      0.106250000000     0.691770000000     0.941410000000    -0.0281149  
N46      N      0.174340000000     0.184250000000     0.988660000000    -0.162303   
N47      N      0.265000000000     0.278110000000     0.985840000000    -0.182263   
N48      N      0.180990000000     0.353380000000     0.963180000000    -0.0320435  
N49      N      0.775850000000     0.955790000000     0.766290000000    -0.167692   
N50      N      0.685360000000     0.959530000000     0.672330000000    -0.181019   
N51      N      0.770400000000     0.980660000000     0.598320000000    -0.0330369  
N52      N      0.275210000000     0.978390000000     0.681760000000    -0.165556   
N53      N      0.183910000000     0.984640000000     0.774780000000    -0.182582   
N54      N      0.265940000000     0.013020000000     0.849720000000    -0.0264238  
N55      N      0.174580000000     0.965360000000     0.183220000000    -0.165505   
N56      N      0.265960000000     0.966060000000     0.276500000000    -0.183324   
N57      N      0.182410000000     0.986530000000     0.353100000000    -0.0321443  
N58      N      0.768220000000     0.955960000000     0.175610000000    -0.166598   
N59      N      0.677900000000     0.952720000000     0.269750000000    -0.182342   
N60      N      0.763060000000     0.940780000000     0.346260000000    -0.0294061  
N61      N      0.978360000000     0.272830000000     0.678230000000    -0.16661    
N62      N      0.982640000000     0.181230000000     0.771030000000    -0.181622   
N63      N      0.018240000000     0.261390000000     0.844610000000    -0.0253234  
N64      N      0.977460000000     0.773140000000     0.769860000000    -0.167037   
N65      N      0.973460000000     0.680150000000     0.678600000000    -0.183367   
N66      N      0.945300000000     0.605060000000     0.760630000000    -0.0282377  
N67      N      0.976740000000     0.678990000000     0.269210000000    -0.169282   
N68      N      0.979140000000     0.772620000000     0.178740000000    -0.183416   
N69      N      0.986100000000     0.849850000000     0.263490000000    -0.0288789  
N70      N      0.964920000000     0.271780000000     0.271310000000    -0.167384   
N71      N      0.966560000000     0.180910000000     0.177660000000    -0.182579   
N72      N      0.976110000000     0.265480000000     0.100500000000    -0.0283182  
O1       O      0.966920000000     0.150790000000     0.075250000000    -0.349377   
O2       O      0.979170000000     0.799570000000     0.075270000000    -0.367074   
O3       O      0.870500000000     0.966710000000     0.148460000000    -0.36528    
O4       O      0.072380000000     0.972520000000     0.153240000000    -0.356731   
O5       O      0.148940000000     0.970150000000     0.079840000000    -0.366746   
O6       O      0.795960000000     0.967330000000     0.072890000000    -0.367318   
O7       O      0.974570000000     0.874900000000     0.149210000000    -0.354165   
O8       O      0.968820000000     0.077220000000     0.151090000000    -0.370012   
O9       O      0.037460000000     0.914120000000     0.038590000000    -0.505378   
O10      O      0.908800000000     0.037830000000     0.036540000000    -0.507046   
O11      O      0.911860000000     0.912030000000     0.035800000000    -0.656893   
O12      O      0.035660000000     0.039480000000     0.038940000000    -0.657384   
O13      O      0.975840000000     0.801490000000     0.872390000000    -0.360476   
O14      O      0.977990000000     0.151830000000     0.873680000000    -0.342638   
O15      O      0.800310000000     0.871580000000     0.969510000000    -0.369711   
O16      O      0.153540000000     0.877150000000     0.973950000000    -0.366866   
O17      O      0.149120000000     0.080550000000     0.984120000000    -0.359757   
O18      O      0.796060000000     0.073970000000     0.969010000000    -0.374612   
O19      O      0.877600000000     0.967000000000     0.796330000000    -0.367296   
O20      O      0.080450000000     0.980600000000     0.800870000000    -0.368885   
O21      O      0.800940000000     0.964120000000     0.869640000000    -0.3671     
O22      O      0.153590000000     0.981780000000     0.877320000000    -0.351827   
O23      O      0.876740000000     0.798100000000     0.973110000000    -0.368737   
O24      O      0.870640000000     0.149120000000     0.970910000000    -0.347796   
O25      O      0.072450000000     0.153880000000     0.980700000000    -0.347928   
O26      O      0.078740000000     0.802360000000     0.974010000000    -0.354069   
O27      O      0.981190000000     0.876010000000     0.797090000000    -0.371642   
O28      O      0.978510000000     0.077870000000     0.797970000000    -0.371029   
O29      O      0.038520000000     0.039690000000     0.913170000000    -0.504899   
O30      O      0.914760000000     0.912890000000     0.910550000000    -0.507385   
O31      O      0.911550000000     0.037720000000     0.909710000000    -0.654414   
O32      O      0.040400000000     0.914360000000     0.912570000000    -0.653956   
O33      O      0.967860000000     0.298980000000     0.374330000000    -0.36321    
O34      O      0.976100000000     0.650730000000     0.371540000000    -0.370377   
O35      O      0.871540000000     0.475500000000     0.298820000000    -0.370489   
O36      O      0.072800000000     0.470670000000     0.295110000000    -0.368416   
O37      O      0.148980000000     0.472850000000     0.368910000000    -0.369415   
O38      O      0.797450000000     0.476590000000     0.374700000000    -0.366154   
O39      O      0.975400000000     0.576050000000     0.296220000000    -0.372692   
O40      O      0.968230000000     0.374210000000     0.299610000000    -0.370048   
O41      O      0.037470000000     0.538730000000     0.409670000000    -0.5067     
O42      O      0.910160000000     0.414990000000     0.412330000000    -0.509247   
O43      O      0.912000000000     0.541040000000     0.410930000000    -0.657955   
O44      O      0.035970000000     0.412600000000     0.410360000000    -0.655119   
O45      O      0.976170000000     0.653190000000     0.575140000000    -0.370702   
O46      O      0.973440000000     0.300100000000     0.575350000000    -0.367264   
O47      O      0.802380000000     0.583770000000     0.474790000000    -0.366388   
O48      O      0.152010000000     0.577090000000     0.465310000000    -0.368424   
O49      O      0.149970000000     0.373400000000     0.471080000000    -0.369917   
O50      O      0.797400000000     0.379350000000     0.474850000000    -0.350708   
O51      O      0.876520000000     0.476560000000     0.651950000000    -0.358371   
O52      O      0.078230000000     0.475230000000     0.648320000000    -0.366114   
O53      O      0.801290000000     0.480900000000     0.577270000000    -0.363803   
O54      O      0.152230000000     0.475990000000     0.572280000000    -0.372119   
O55      O      0.878150000000     0.658000000000     0.474910000000    -0.367424   
O56      O      0.870560000000     0.302990000000     0.476230000000    -0.369912   
O57      O      0.073770000000     0.300050000000     0.474130000000    -0.350765   
O58      O      0.077260000000     0.652380000000     0.466200000000    -0.370787   
O59      O      0.976340000000     0.577660000000     0.649210000000    -0.35498    
O60      O      0.978950000000     0.375510000000     0.649720000000    -0.366428   
O61      O      0.038130000000     0.413320000000     0.535530000000    -0.507067   
O62      O      0.913830000000     0.541020000000     0.537560000000    -0.510182   
O63      O      0.911550000000     0.415370000000     0.537470000000    -0.658882   
O64      O      0.039930000000     0.539440000000     0.535680000000    -0.653297   
O65      O      0.649920000000     0.966490000000     0.371980000000    -0.347768   
O66      O      0.297870000000     0.973980000000     0.377790000000    -0.349164   
O67      O      0.475740000000     0.874080000000     0.298790000000    -0.369974   
O68      O      0.473500000000     0.076470000000     0.296910000000    -0.376045   
O69      O      0.470040000000     0.151030000000     0.372450000000    -0.369345   
O70      O      0.476780000000     0.798740000000     0.373560000000    -0.371058   
O71      O      0.370190000000     0.971080000000     0.300770000000    -0.371645   
O72      O      0.575130000000     0.965460000000     0.297350000000    -0.368525   
O73      O      0.411460000000     0.038470000000     0.412010000000    -0.507272   
O74      O      0.536710000000     0.914020000000     0.411310000000    -0.507556   
O75      O      0.412510000000     0.913270000000     0.412560000000    -0.65919    
O76      O      0.537120000000     0.040360000000     0.409020000000    -0.658549   
O77      O      0.301550000000     0.973790000000     0.578680000000    -0.365853   
O78      O      0.654290000000     0.971350000000     0.570770000000    -0.346546   
O79      O      0.373460000000     0.800140000000     0.467880000000    -0.372115   
O80      O      0.373390000000     0.152530000000     0.475590000000    -0.370049   
O81      O      0.574740000000     0.153350000000     0.473480000000    -0.371719   
O82      O      0.578350000000     0.801990000000     0.473580000000    -0.373782   
O83      O      0.474740000000     0.874520000000     0.649980000000    -0.354432   
O84      O      0.479190000000     0.076790000000     0.649970000000    -0.369594   
O85      O      0.472170000000     0.799140000000     0.575690000000    -0.373759   
O86      O      0.476980000000     0.152300000000     0.575360000000    -0.368681   
O87      O      0.299560000000     0.875630000000     0.471080000000    -0.351335   
O88      O      0.650210000000     0.879310000000     0.472370000000    -0.351025   
O89      O      0.650570000000     0.079310000000     0.471610000000    -0.363578   
O90      O      0.299430000000     0.076540000000     0.475110000000    -0.362325   
O91      O      0.377660000000     0.977820000000     0.652460000000    -0.359335   
O92      O      0.581550000000     0.969320000000     0.647480000000    -0.366691   
O93      O      0.538960000000     0.040450000000     0.537050000000    -0.511535   
O94      O      0.413610000000     0.912250000000     0.539000000000    -0.506873   
O95      O      0.538970000000     0.913510000000     0.535610000000    -0.661345   
O96      O      0.413800000000     0.038720000000     0.538530000000    -0.661125   
O97      O      0.368870000000     0.302790000000     0.980250000000    -0.361427   
O98      O      0.377650000000     0.655030000000     0.973840000000    -0.365941   
O99      O      0.296610000000     0.474260000000     0.070410000000    -0.349578   
O100     O      0.300250000000     0.480350000000     0.869600000000    -0.365185   
O101     O      0.376370000000     0.477410000000     0.796400000000    -0.353245   
O102     O      0.369710000000     0.473110000000     0.146750000000    -0.360997   
O103     O      0.302200000000     0.580580000000     0.970570000000    -0.367945   
O104     O      0.296410000000     0.379550000000     0.975660000000    -0.349503   
O105     O      0.414170000000     0.539920000000     0.909620000000    -0.514621   
O106     O      0.410240000000     0.415010000000     0.035540000000    -0.511491   
O107     O      0.411800000000     0.540360000000     0.036250000000    -0.659276   
O108     O      0.411020000000     0.412810000000     0.910280000000    -0.662102   
O109     O      0.579790000000     0.649240000000     0.975040000000    -0.363186   
O110     O      0.572050000000     0.296130000000     0.975350000000    -0.367258   
O111     O      0.477230000000     0.577270000000     0.150410000000    -0.369118   
O112     O      0.477890000000     0.575620000000     0.797170000000    -0.354638   
O113     O      0.473630000000     0.373170000000     0.798510000000    -0.361169   
O114     O      0.468640000000     0.375180000000     0.150350000000    -0.345144   
O115     O      0.649350000000     0.469000000000     0.077420000000    -0.3614     
O116     O      0.652520000000     0.470630000000     0.874120000000    -0.364152   
O117     O      0.573330000000     0.473220000000     0.150880000000    -0.350968   
O118     O      0.577360000000     0.473210000000     0.799990000000    -0.356044   
O119     O      0.479040000000     0.651170000000     0.074810000000    -0.354045   
O120     O      0.468120000000     0.299630000000     0.076190000000    -0.370835   
O121     O      0.472030000000     0.299330000000     0.874200000000    -0.355688   
O122     O      0.475940000000     0.650460000000     0.872400000000    -0.369236   
O123     O      0.652810000000     0.572700000000     0.975730000000    -0.354397   
O124     O      0.647600000000     0.370500000000     0.971530000000    -0.369348   
O125     O      0.536870000000     0.410630000000     0.912170000000    -0.510899   
O126     O      0.538200000000     0.537100000000     0.037290000000    -0.507663   
O127     O      0.535610000000     0.411450000000     0.038080000000    -0.656951   
O128     O      0.539500000000     0.536870000000     0.911630000000    -0.660453   
O129     O      0.448160000000     0.371880000000     0.310090000000    -0.0864339  
O130     O      0.376190000000     0.365120000000     0.235130000000    -0.0925705  
O131     O      0.559300000000     0.747730000000     0.078080000000    -0.0938195  
O132     O      0.474480000000     0.808280000000     0.075650000000    -0.10473    
O133     O      0.469240000000     0.873180000000     0.808050000000    -0.0989216  
O134     O      0.388870000000     0.868900000000     0.741850000000    -0.0879154  
O135     O      0.480070000000     0.141940000000     0.873260000000    -0.0981354  
O136     O      0.394560000000     0.201500000000     0.870930000000    -0.0926211  
O137     O      0.641620000000     0.377440000000     0.455000000000    -0.090052   
O138     O      0.693480000000     0.379090000000     0.545410000000    -0.093158   
O139     O      0.774710000000     0.899110000000     0.443330000000    -0.0398599  
O140     O      0.765620000000     0.883640000000     0.544740000000    -0.0681859  
O141     O      0.075490000000     0.142430000000     0.487050000000    -0.0914615  
O142     O      0.074650000000     0.199380000000     0.399750000000    -0.0925993  
O143     O      0.155650000000     0.874090000000     0.494380000000    -0.0898475  
O144     O      0.195440000000     0.886960000000     0.398120000000    -0.0645846  
O145     O      0.574090000000     0.395040000000     0.248420000000    -0.0834762  
O146     O      0.574050000000     0.479710000000     0.309260000000    -0.0897927  
O147     O      0.152060000000     0.498090000000     0.070640000000    -0.0817722  
O148     O      0.192430000000     0.401630000000     0.061220000000    -0.0589319  
O149     O      0.375300000000     0.554160000000     0.697090000000    -0.0910603  
O150     O      0.376110000000     0.467500000000     0.639130000000    -0.0963419  
O151     O      0.572280000000     0.422080000000     0.684860000000    -0.0877898  
O152     O      0.581190000000     0.521020000000     0.653120000000    -0.0969925  
O153     O      0.750640000000     0.576970000000     0.054140000000    -0.0946302  
O154     O      0.810840000000     0.573240000000     0.969140000000    -0.0935085  
O155     O      0.867320000000     0.307880000000     0.950530000000    -0.074519   
O156     O      0.862150000000     0.232990000000     0.878270000000    -0.0880307  
O157     O      0.080080000000     0.645400000000     0.970060000000    -0.0872615  
O158     O      0.083560000000     0.710270000000     0.888520000000    -0.0929276  
O159     O      0.174030000000     0.401080000000     0.000320000000    -0.0420387  
O160     O      0.162330000000     0.359170000000     0.905980000000    -0.0833247  
O161     O      0.780330000000     0.945590000000     0.549660000000    -0.046106   
O162     O      0.785520000000     0.039070000000     0.594180000000    -0.0934524  
O163     O      0.246130000000     0.065550000000     0.872210000000    -0.0862671  
O164     O      0.313090000000     0.985750000000     0.875970000000    -0.0923238  
O165     O      0.176380000000     0.947700000000     0.399610000000    -0.0459235  
O166     O      0.162770000000     0.043170000000     0.360910000000    -0.0866156  
O167     O      0.791340000000     0.990100000000     0.367150000000    -0.0853314  
O168     O      0.756040000000     0.892620000000     0.383000000000    -0.0613796  
O169     O      0.996820000000     0.311090000000     0.871600000000    -0.0720689  
O170     O      0.069860000000     0.237110000000     0.864510000000    -0.080756   
O171     O      0.891850000000     0.583460000000     0.742560000000    -0.0911765  
O172     O      0.973810000000     0.578260000000     0.806710000000    -0.0866603  
O173     O      0.039350000000     0.877840000000     0.258200000000    -0.0871674  
O174     O      0.944500000000     0.872530000000     0.301020000000    -0.0923942  
O175     O      0.029940000000     0.260050000000     0.073620000000    -0.0837092  
O176     O      0.935290000000     0.303460000000     0.077160000000    -0.0788227  
Zr1      Zr     0.972230000000     0.975930000000     0.099580000000     1.44078    
Zr2      Zr     0.976950000000     0.851160000000     0.974190000000     1.44475    
Zr3      Zr     0.972630000000     0.100260000000     0.974480000000     1.45121    
Zr4      Zr     0.849050000000     0.973620000000     0.972060000000     1.42475    
Zr5      Zr     0.100650000000     0.977710000000     0.977420000000     1.43611    
Zr6      Zr     0.977780000000     0.976450000000     0.849060000000     1.42971    
Zr7      Zr     0.973100000000     0.475990000000     0.348680000000     1.43856    
Zr8      Zr     0.976520000000     0.602140000000     0.473540000000     1.43527    
Zr9      Zr     0.972810000000     0.351680000000     0.474470000000     1.44382    
Zr10     Zr     0.849790000000     0.479830000000     0.475120000000     1.44332    
Zr11     Zr     0.100360000000     0.475580000000     0.471460000000     1.42966    
Zr12     Zr     0.976750000000     0.476760000000     0.598600000000     1.44302    
Zr13     Zr     0.473740000000     0.975680000000     0.348520000000     1.43008    
Zr14     Zr     0.351160000000     0.975700000000     0.476810000000     1.45513    
Zr15     Zr     0.599280000000     0.978170000000     0.472310000000     1.46372    
Zr16     Zr     0.475390000000     0.850290000000     0.474400000000     1.43762    
Zr17     Zr     0.474540000000     0.101380000000     0.474060000000     1.43486    
Zr18     Zr     0.478000000000     0.975720000000     0.599620000000     1.44015    
Zr19     Zr     0.350190000000     0.478460000000     0.971460000000     1.45701    
Zr20     Zr     0.477250000000     0.600610000000     0.973830000000     1.44268    
Zr21     Zr     0.472080000000     0.350120000000     0.974980000000     1.44509    
Zr22     Zr     0.472900000000     0.476150000000     0.099080000000     1.45191    
Zr23     Zr     0.476090000000     0.474690000000     0.849110000000     1.45712    
Zr24     Zr     0.599840000000     0.472680000000     0.975110000000     1.44221    


