data_structure

_audit_creation_method RASPA-1.0
_audit_creation_date 2023-5-19
_audit_author_name 'Poobodin Mano'

_cell_length_a    21.4265
_cell_length_b    21.4592
_cell_length_c    21.4203
_cell_angle_alpha 90
_cell_angle_beta  90
_cell_angle_gamma 90
_cell_volume      9848.96

_symmetry_cell_setting          triclinic
_symmetry_space_group_name_Hall 'P 1'
_symmetry_space_group_name_H-M  'P 1'
_symmetry_Int_Tables_number     1

_symmetry_equiv_pos_as_xyz 'x,y,z'

loop_
_atom_site_label
_atom_site_type_symbol
_atom_site_fract_x
_atom_site_fract_y
_atom_site_fract_z
_atom_site_charge
C1       C      0.967430000000     0.141660000000     0.133490000000     0.392946   
C2       C      0.985950000000     0.823720000000     0.144220000000     0.413619   
C3       C      0.818820000000     0.989280000000     0.138230000000     0.390042   
C4       C      0.136650000000     0.986900000000     0.141140000000     0.412211   
C5       C      0.982040000000     0.813990000000     0.825420000000     0.388122   
C6       C      0.990340000000     0.131650000000     0.815730000000     0.415394   
C7       C      0.817110000000     0.821280000000     0.990420000000     0.412545   
C8       C      0.135790000000     0.816850000000     0.993370000000     0.411113   
C9       C      0.140260000000     0.135330000000     0.981620000000     0.411857   
C10      C      0.821120000000     0.138990000000     0.978500000000     0.388649   
C11      C      0.820110000000     0.971040000000     0.819440000000     0.409175   
C12      C      0.139750000000     0.966450000000     0.822890000000     0.388732   
C13      C      0.978150000000     0.321170000000     0.316990000000     0.412297   
C14      C      0.977020000000     0.639770000000     0.324660000000     0.389654   
C15      C      0.818670000000     0.484960000000     0.320520000000     0.390064   
C16      C      0.136840000000     0.475040000000     0.319670000000     0.410555   
C17      C      0.970440000000     0.631300000000     0.643920000000     0.413985   
C18      C      0.974460000000     0.313690000000     0.635600000000     0.389835   
C19      C      0.820650000000     0.637420000000     0.479930000000     0.411889   
C20      C      0.139910000000     0.633970000000     0.489000000000     0.410719   
C21      C      0.136280000000     0.316610000000     0.471380000000     0.411392   
C22      C      0.817790000000     0.318970000000     0.479870000000     0.391119   
C23      C      0.818590000000     0.471160000000     0.638370000000     0.390835   
C24      C      0.137920000000     0.464130000000     0.638320000000     0.412364   
C25      C      0.636870000000     0.970390000000     0.317740000000     0.41413    
C26      C      0.318550000000     0.968190000000     0.320340000000     0.390582   
C27      C      0.489950000000     0.815780000000     0.322710000000     0.413018   
C28      C      0.467200000000     0.134130000000     0.316220000000     0.410716   
C29      C      0.320250000000     0.979340000000     0.639000000000     0.410379   
C30      C      0.639540000000     0.990690000000     0.636680000000     0.389269   
C31      C      0.321880000000     0.816240000000     0.477860000000     0.388486   
C32      C      0.317100000000     0.133990000000     0.482090000000     0.389748   
C33      C      0.635340000000     0.139480000000     0.466620000000     0.41304    
C34      C      0.640820000000     0.821690000000     0.488550000000     0.389698   
C35      C      0.484880000000     0.821680000000     0.640950000000     0.390702   
C36      C      0.476070000000     0.139930000000     0.635110000000     0.410494   
C37      C      0.320940000000     0.318260000000     0.968710000000     0.389806   
C38      C      0.317650000000     0.636480000000     0.974470000000     0.389784   
C39      C      0.319910000000     0.480590000000     0.137210000000     0.389837   
C40      C      0.319090000000     0.484980000000     0.818220000000     0.391986   
C41      C      0.636150000000     0.639950000000     0.976210000000     0.389199   
C42      C      0.639870000000     0.322280000000     0.965820000000     0.411095   
C43      C      0.475070000000     0.635160000000     0.140130000000     0.389511   
C44      C      0.467490000000     0.641470000000     0.821870000000     0.415399   
C45      C      0.489790000000     0.323760000000     0.814670000000     0.392663   
C46      C      0.481850000000     0.316220000000     0.133700000000     0.388132   
C47      C      0.638460000000     0.473850000000     0.136500000000     0.410807   
C48      C      0.638240000000     0.490810000000     0.818540000000     0.41211    
C49      C      0.493990000000     0.204370000000     0.162440000000    -0.018381   
C50      C      0.491720000000     0.286900000000     0.245300000000    -0.10449    
C51      C      0.454030000000     0.162030000000     0.204230000000    -0.00910916 
C52      C      0.449460000000     0.245750000000     0.285250000000     0.322719   
C53      C      0.462520000000     0.746020000000     0.171000000000    -0.0176517  
C54      C      0.464960000000     0.662110000000     0.252520000000    -0.103706   
C55      C      0.504880000000     0.786350000000     0.211710000000    -0.0101069  
C56      C      0.506470000000     0.703320000000     0.293610000000     0.321317   
C57      C      0.496530000000     0.710540000000     0.671150000000    -0.0194816  
C58      C      0.495800000000     0.794070000000     0.753090000000    -0.105871   
C59      C      0.452380000000     0.671420000000     0.711060000000    -0.00688174 
C60      C      0.452200000000     0.754200000000     0.793200000000     0.323271   
C61      C      0.503680000000     0.295100000000     0.702810000000    -0.016546   
C62      C      0.509160000000     0.213500000000     0.785880000000    -0.103701   
C63      C      0.463460000000     0.251620000000     0.662650000000    -0.010799   
C64      C      0.466840000000     0.171010000000     0.747600000000     0.32175    
C65      C      0.787860000000     0.207730000000     0.490250000000    -0.0198609  
C66      C      0.706110000000     0.291490000000     0.493090000000    -0.104484   
C67      C      0.745760000000     0.168680000000     0.448120000000    -0.00573739 
C68      C      0.664190000000     0.251970000000     0.451090000000     0.322353   
C69      C      0.752340000000     0.793020000000     0.503330000000    -0.0179775  
C70      C      0.669010000000     0.711680000000     0.509730000000    -0.104461   
C71      C      0.792840000000     0.748540000000     0.464820000000    -0.00781739 
C72      C      0.708160000000     0.667680000000     0.469800000000     0.322865   
C73      C      0.205380000000     0.162600000000     0.495110000000    -0.0192968  
C74      C      0.288460000000     0.244800000000     0.497640000000    -0.105574   
C75      C      0.164400000000     0.205550000000     0.455350000000    -0.00811663 
C76      C      0.248490000000     0.286630000000     0.456250000000     0.324278   
C77      C      0.210710000000     0.786420000000     0.464650000000    -0.0204441  
C78      C      0.294290000000     0.704620000000     0.464970000000    -0.105      
C79      C      0.169530000000     0.744520000000     0.505000000000    -0.00570267 
C80      C      0.252610000000     0.662530000000     0.504840000000     0.321885   
C81      C      0.707180000000     0.497820000000     0.291080000000    -0.0201519  
C82      C      0.790740000000     0.502630000000     0.209510000000    -0.104025   
C83      C      0.667150000000     0.457880000000     0.247520000000    -0.0068809  
C84      C      0.751200000000     0.462140000000     0.166170000000     0.321523   
C85      C      0.291360000000     0.495840000000     0.248510000000    -0.0158339  
C86      C      0.209200000000     0.498500000000     0.165380000000    -0.104211   
C87      C      0.247510000000     0.458590000000     0.290670000000    -0.0116417  
C88      C      0.165480000000     0.460770000000     0.207110000000     0.321962   
C89      C      0.207190000000     0.496000000000     0.789130000000    -0.0186493  
C90      C      0.289940000000     0.494800000000     0.706390000000    -0.104058   
C91      C      0.167510000000     0.451530000000     0.749770000000    -0.00833845 
C92      C      0.250640000000     0.449460000000     0.667890000000     0.322034   
C93      C      0.706640000000     0.461040000000     0.667240000000    -0.0193941  
C94      C      0.789520000000     0.459620000000     0.749930000000    -0.105009   
C95      C      0.667680000000     0.505330000000     0.707380000000    -0.00606714 
C96      C      0.750990000000     0.504900000000     0.789130000000     0.324441   
C97      C      0.747520000000     0.669600000000     0.964390000000    -0.0249095  
C98      C      0.664000000000     0.751540000000     0.963850000000    -0.108012   
C99      C      0.787470000000     0.710750000000     0.006650000000    -0.000213185
C100     C      0.704370000000     0.792640000000     0.005910000000     0.32755    
C101     C      0.709810000000     0.169350000000     0.989910000000    -0.0227327  
C102     C      0.793740000000     0.250880000000     0.989840000000    -0.104921   
C103     C      0.669080000000     0.211570000000     0.949300000000    -0.00612704 
C104     C      0.752460000000     0.293100000000     0.949610000000     0.321003   
C105     C      0.287510000000     0.747910000000     0.964020000000    -0.0235276  
C106     C      0.205570000000     0.664480000000     0.963940000000    -0.106032   
C107     C      0.246970000000     0.787300000000     0.007600000000    -0.00360187 
C108     C      0.165260000000     0.704140000000     0.007590000000     0.323897   
C109     C      0.209800000000     0.288460000000     0.954370000000    -0.0177886  
C110     C      0.293420000000     0.207080000000     0.952050000000    -0.103809   
C111     C      0.169590000000     0.246190000000     0.995300000000    -0.00958942 
C112     C      0.253240000000     0.164400000000     0.992740000000     0.320159   
C113     C      0.751430000000     0.003000000000     0.666170000000    -0.0134511  
C114     C      0.668380000000     0.004570000000     0.748230000000    -0.101062   
C115     C      0.791330000000     0.960280000000     0.707490000000    -0.0121304  
C116     C      0.707250000000     0.960590000000     0.788770000000     0.319635   
C117     C      0.251490000000     0.953350000000     0.794010000000    -0.0178928  
C118     C      0.168360000000     0.947320000000     0.712280000000    -0.103372   
C119     C      0.291530000000     0.993280000000     0.750330000000    -0.0107465  
C120     C      0.207370000000     0.988260000000     0.668930000000     0.320345   
C121     C      0.288000000000     0.954740000000     0.209170000000    -0.0174095  
C122     C      0.206500000000     0.956360000000     0.293020000000    -0.106225   
C123     C      0.248190000000     0.998890000000     0.169830000000    -0.0109804  
C124     C      0.166820000000     0.000700000000     0.253730000000     0.326528   
C125     C      0.788640000000     0.001960000000     0.249650000000    -0.0158443  
C126     C      0.706980000000     0.002490000000     0.166010000000    -0.100824   
C127     C      0.748320000000     0.957890000000     0.288660000000    -0.00849965 
C128     C      0.666870000000     0.958090000000     0.204850000000     0.321166   
C129     C      0.963790000000     0.282870000000     0.746750000000    -0.022467   
C130     C      0.962560000000     0.201640000000     0.662520000000    -0.106037   
C131     C      0.007230000000     0.241880000000     0.785440000000    -0.00153142 
C132     C      0.004600000000     0.159880000000     0.702540000000     0.325214   
C133     C      0.995780000000     0.783110000000     0.714620000000    -0.0217918  
C134     C      0.994370000000     0.701910000000     0.798780000000    -0.106816   
C135     C      0.954570000000     0.741710000000     0.673940000000    -0.00602884 
C136     C      0.954760000000     0.659560000000     0.756880000000     0.322394   
C137     C      0.964770000000     0.670680000000     0.213780000000    -0.0207819  
C138     C      0.962810000000     0.751570000000     0.298360000000    -0.104773   
C139     C      0.004880000000     0.713730000000     0.173770000000    -0.00452485 
C140     C      0.001350000000     0.795420000000     0.257080000000     0.324192   
C141     C      0.952370000000     0.253430000000     0.161050000000    -0.0172918  
C142     C      0.944880000000     0.171000000000     0.243050000000    -0.104418   
C143     C      0.991620000000     0.293710000000     0.205280000000    -0.011399   
C144     C      0.986720000000     0.208910000000     0.286160000000     0.321346   
F1       F      0.459320000000     0.260770000000     0.347380000000    -0.418695   
F2       F      0.494130000000     0.689320000000     0.355540000000    -0.43178    
F3       F      0.463380000000     0.767770000000     0.855440000000    -0.434665   
F4       F      0.481760000000     0.109880000000     0.762180000000    -0.433991   
F5       F      0.602560000000     0.265910000000     0.464850000000    -0.421957   
F6       F      0.693820000000     0.607170000000     0.487310000000    -0.434468   
F7       F      0.263160000000     0.348070000000     0.469720000000    -0.410986   
F8       F      0.266630000000     0.601110000000     0.490610000000    -0.415187   
F9       F      0.765330000000     0.478310000000     0.105150000000    -0.417949   
F10      F      0.104760000000     0.477910000000     0.192880000000    -0.435703   
F11      F      0.264480000000     0.458200000000     0.605320000000    -0.404864   
F12      F      0.764840000000     0.495100000000     0.851540000000    -0.41402    
F13      F      0.690520000000     0.854420000000     0.993200000000    -0.418672   
F14      F      0.766690000000     0.354510000000     0.963690000000    -0.408732   
F15      F      0.103120000000     0.690260000000     0.996290000000    -0.435931   
F16      F      0.266970000000     0.103260000000     0.977060000000    -0.43699    
F17      F      0.693030000000     0.972260000000     0.850780000000    -0.419134   
F18      F      0.193450000000     0.971730000000     0.607950000000    -0.434821   
F19      F      0.104590000000     0.990340000000     0.267930000000    -0.420296   
F20      F      0.604720000000     0.969120000000     0.190810000000    -0.434438   
F21      F      0.990680000000     0.098260000000     0.689130000000    -0.436752   
F22      F      0.969430000000     0.598200000000     0.770670000000    -0.432024   
F23      F      0.984350000000     0.856170000000     0.270970000000    -0.424754   
F24      F      0.970650000000     0.194500000000     0.347160000000    -0.434714   
H1       H      0.888130000000     0.892590000000     0.072590000000     0.215101   
H2       H      0.067260000000     0.069520000000     0.067970000000     0.215224   
H3       H      0.891000000000     0.065910000000     0.886720000000     0.212408   
H4       H      0.067740000000     0.885020000000     0.895620000000     0.213527   
H5       H      0.890500000000     0.568330000000     0.393310000000     0.214786   
H6       H      0.065780000000     0.389340000000     0.388760000000     0.218291   
H7       H      0.888690000000     0.386610000000     0.566730000000     0.214682   
H8       H      0.068290000000     0.562670000000     0.572510000000     0.214558   
H9       H      0.391560000000     0.885140000000     0.391180000000     0.213921   
H10      H      0.565650000000     0.066360000000     0.385670000000     0.214946   
H11      H      0.570180000000     0.893120000000     0.569530000000     0.212525   
H12      H      0.389340000000     0.066360000000     0.566650000000     0.216597   
H13      H      0.388570000000     0.565620000000     0.067630000000     0.212344   
H14      H      0.390880000000     0.390690000000     0.885180000000     0.209925   
H15      H      0.569140000000     0.388850000000     0.064070000000     0.214554   
H16      H      0.565700000000     0.571830000000     0.889600000000     0.216371   
H17      H      0.540910000000     0.279060000000     0.259930000000     0.0911551  
H18      H      0.543840000000     0.191790000000     0.169540000000     0.0499735  
H19      H      0.467130000000     0.112830000000     0.194770000000     0.0587405  
H20      H      0.480190000000     0.336420000000     0.255170000000     0.0963528  
H21      H      0.400210000000     0.257390000000     0.273680000000     0.000273789
H22      H      0.482270000000     0.194460000000     0.112890000000     0.0533042  
H23      H      0.404370000000     0.167810000000     0.190270000000     0.0460202  
H24      H      0.415600000000     0.668910000000     0.267100000000     0.0863873  
H25      H      0.413250000000     0.759300000000     0.180490000000     0.0449661  
H26      H      0.494720000000     0.836070000000     0.201460000000     0.0640966  
H27      H      0.477180000000     0.612570000000     0.261390000000     0.0933136  
H28      H      0.555910000000     0.690860000000     0.283940000000     0.000155579
H29      H      0.472420000000     0.756820000000     0.121250000000     0.0560289  
H30      H      0.554090000000     0.777400000000     0.197800000000     0.0542851  
H31      H      0.544660000000     0.785110000000     0.768170000000     0.090229   
H32      H      0.545230000000     0.695820000000     0.681450000000     0.0474225  
H33      H      0.460970000000     0.621430000000     0.700690000000     0.0519919  
H34      H      0.485470000000     0.843990000000     0.762200000000     0.0975633  
H35      H      0.403380000000     0.768120000000     0.782350000000    -0.00384615 
H36      H      0.487230000000     0.700180000000     0.621200000000     0.0569513  
H37      H      0.403660000000     0.682120000000     0.696650000000     0.0472607  
H38      H      0.558510000000     0.201770000000     0.774800000000     0.0880187  
H39      H      0.553230000000     0.289180000000     0.688510000000     0.0519976  
H40      H      0.474220000000     0.260920000000     0.612770000000     0.0661407  
H41      H      0.501680000000     0.203370000000     0.836200000000     0.093175   
H42      H      0.417790000000     0.179520000000     0.762330000000    -0.0040813  
H43      H      0.490160000000     0.344070000000     0.692730000000     0.0546932  
H44      H      0.413640000000     0.263990000000     0.670310000000     0.0475125  
H45      H      0.692950000000     0.282540000000     0.542520000000     0.0861245  
H46      H      0.780140000000     0.192940000000     0.539410000000     0.0474335  
H47      H      0.756140000000     0.118670000000     0.456590000000     0.0489091  
H48      H      0.696710000000     0.341450000000     0.483210000000     0.0951414  
H49      H      0.673160000000     0.265820000000     0.401860000000     0.000483533
H50      H      0.837250000000     0.197420000000     0.478240000000     0.0620574  
H51      H      0.758150000000     0.178950000000     0.398740000000     0.0463824  
H52      H      0.678690000000     0.701490000000     0.559730000000     0.0850759  
H53      H      0.765930000000     0.788390000000     0.553230000000     0.0437297  
H54      H      0.842570000000     0.758370000000     0.475750000000     0.0471486  
H55      H      0.618910000000     0.701430000000     0.501170000000     0.101891   
H56      H      0.694100000000     0.673900000000     0.420210000000     0.00193563 
H57      H      0.762690000000     0.841590000000     0.488620000000     0.047794   
H58      H      0.785610000000     0.759390000000     0.414560000000     0.0424992  
H59      H      0.279440000000     0.257250000000     0.547240000000     0.094704   
H60      H      0.191900000000     0.168670000000     0.544880000000     0.0573166  
H61      H      0.114750000000     0.195650000000     0.466570000000     0.0647797  
H62      H      0.338370000000     0.254890000000     0.487820000000     0.110918   
H63      H      0.261480000000     0.277540000000     0.406800000000     0.00417638 
H64      H      0.195310000000     0.113520000000     0.481970000000     0.0666281  
H65      H      0.171780000000     0.193360000000     0.405420000000     0.0526603  
H66      H      0.287730000000     0.691750000000     0.415090000000     0.0934469  
H67      H      0.197860000000     0.778970000000     0.414900000000     0.0510184  
H68      H      0.119960000000     0.755020000000     0.493990000000     0.0507291  
H69      H      0.343780000000     0.695120000000     0.477240000000     0.103365   
H70      H      0.264830000000     0.670530000000     0.554670000000     0.000530444
H71      H      0.200070000000     0.835750000000     0.476340000000     0.0635712  
H72      H      0.177440000000     0.756930000000     0.554800000000     0.0462039  
H73      H      0.781610000000     0.552380000000     0.198140000000     0.0874522  
H74      H      0.693140000000     0.547360000000     0.285140000000     0.0558994  
H75      H      0.617290000000     0.467860000000     0.257640000000     0.0545989  
H76      H      0.840790000000     0.493300000000     0.199610000000     0.0960676  
H77      H      0.765170000000     0.412720000000     0.173290000000     0.00178194 
H78      H      0.696800000000     0.484300000000     0.340080000000     0.064738   
H79      H      0.675620000000     0.408050000000     0.259010000000     0.0463614  
H80      H      0.198740000000     0.548850000000     0.172020000000     0.0892409  
H81      H      0.286690000000     0.546060000000     0.260500000000     0.0524455  
H82      H      0.258140000000     0.470890000000     0.339940000000     0.0782113  
H83      H      0.198790000000     0.486770000000     0.115930000000     0.0919058  
H84      H      0.171190000000     0.410660000000     0.195150000000    -0.00515155 
H85      H      0.340140000000     0.481690000000     0.259030000000     0.0582799  
H86      H      0.258120000000     0.408220000000     0.284620000000     0.0553826  
H87      H      0.279520000000     0.543010000000     0.690410000000     0.0929025  
H88      H      0.192140000000     0.544510000000     0.778760000000     0.0526773  
H89      H      0.117500000000     0.460930000000     0.759700000000     0.0571479  
H90      H      0.340070000000     0.485570000000     0.696800000000     0.0953255  
H91      H      0.264920000000     0.401290000000     0.680740000000     0.000244083
H92      H      0.197450000000     0.486960000000     0.839270000000     0.0521572  
H93      H      0.177580000000     0.403070000000     0.765200000000     0.0415626  
H94      H      0.778360000000     0.411310000000     0.765100000000     0.0926767  
H95      H      0.690940000000     0.412560000000     0.676800000000     0.04826    
H96      H      0.617530000000     0.496790000000     0.697380000000     0.0509616  
H97      H      0.839780000000     0.467960000000     0.759630000000     0.10682    
H98      H      0.765860000000     0.553050000000     0.776930000000     0.00272261 
H99      H      0.696980000000     0.471060000000     0.617280000000     0.0630817  
H100     H      0.678420000000     0.553920000000     0.692820000000     0.0483278  
H101     H      0.672390000000     0.765300000000     0.914490000000     0.0993252  
H102     H      0.761660000000     0.678080000000     0.915160000000     0.061564   
H103     H      0.837360000000     0.700360000000     0.997120000000     0.0556416  
H104     H      0.614140000000     0.760980000000     0.974530000000     0.105612   
H105     H      0.690990000000     0.783100000000     0.055170000000    -0.00148699 
H106     H      0.757840000000     0.620050000000     0.975360000000     0.0810015  
H107     H      0.777930000000     0.697600000000     0.055960000000     0.0475048  
H108     H      0.787090000000     0.264050000000     0.039630000000     0.0927198  
H109     H      0.696580000000     0.176690000000     0.039580000000     0.0515517  
H110     H      0.619370000000     0.201270000000     0.959840000000     0.0521646  
H111     H      0.843330000000     0.260140000000     0.977770000000     0.0928819  
H112     H      0.764800000000     0.284840000000     0.899860000000     0.000385725
H113     H      0.699180000000     0.120090000000     0.977950000000     0.0660997  
H114     H      0.677280000000     0.199110000000     0.899560000000     0.0478103  
H115     H      0.190710000000     0.673650000000     0.915040000000     0.0876825  
H116     H      0.278050000000     0.762690000000     0.915160000000     0.0549593  
H117     H      0.257030000000     0.837260000000     0.998460000000     0.0498948  
H118     H      0.196380000000     0.614510000000     0.974000000000     0.0921398  
H119     H      0.176090000000     0.690150000000     0.056400000000    -0.00396661 
H120     H      0.337340000000     0.758140000000     0.974100000000     0.0645006  
H121     H      0.261210000000     0.777260000000     0.056510000000     0.0413163  
H122     H      0.285050000000     0.194940000000     0.902260000000     0.0883426  
H123     H      0.196210000000     0.280940000000     0.904820000000     0.0447933  
H124     H      0.119790000000     0.256390000000     0.985080000000     0.0478057  
H125     H      0.343330000000     0.197440000000     0.962340000000     0.0916079  
H126     H      0.266980000000     0.171750000000     0.042270000000    -0.00428686 
H127     H      0.199150000000     0.337730000000     0.966250000000     0.0488996  
H128     H      0.178150000000     0.258660000000     0.044970000000     0.0443714  
H129     H      0.678930000000     0.053310000000     0.762440000000     0.0921272  
H130     H      0.766110000000     0.051970000000     0.674730000000     0.0491995  
H131     H      0.841280000000     0.970480000000     0.698040000000     0.0561577  
H132     H      0.618160000000     0.996030000000     0.757930000000     0.105698   
H133     H      0.692670000000     0.912020000000     0.777970000000     0.00241627 
H134     H      0.761450000000     0.992090000000     0.616460000000     0.0470643  
H135     H      0.782520000000     0.911250000000     0.693140000000     0.0420362  
H136     H      0.178460000000     0.897680000000     0.701230000000     0.084977   
H137     H      0.265820000000     0.903850000000     0.788370000000     0.0494206  
H138     H      0.341390000000     0.983150000000     0.760290000000     0.063662   
H139     H      0.118200000000     0.955660000000     0.702100000000     0.100195   
H140     H      0.192710000000     0.037500000000     0.675900000000     0.00440527 
H141     H      0.261600000000     0.967150000000     0.842980000000     0.0631149  
H142     H      0.283230000000     0.043120000000     0.761900000000     0.0557526  
H143     H      0.190990000000     0.907830000000     0.283400000000     0.0918603  
H144     H      0.277230000000     0.906100000000     0.194830000000     0.0467326  
H145     H      0.257780000000     0.989430000000     0.119750000000     0.0598278  
H146     H      0.197490000000     0.966010000000     0.343180000000     0.0973322  
H147     H      0.178570000000     0.049220000000     0.267730000000    -0.00115119 
H148     H      0.337990000000     0.963580000000     0.198590000000     0.0525623  
H149     H      0.263540000000     0.047440000000     0.179620000000     0.0492583  
H150     H      0.692110000000     0.051070000000     0.176320000000     0.085884   
H151     H      0.778550000000     0.050570000000     0.264580000000     0.0477607  
H152     H      0.758050000000     0.966880000000     0.338800000000     0.0491695  
H153     H      0.697750000000     0.993580000000     0.115750000000     0.104569   
H154     H      0.678120000000     0.909640000000     0.190220000000     0.0034665  
H155     H      0.838540000000     0.992420000000     0.260040000000     0.0612714  
H156     H      0.763080000000     0.909260000000     0.278440000000     0.047573   
H157     H      0.913200000000     0.187840000000     0.670780000000     0.0845085  
H158     H      0.914930000000     0.273610000000     0.761640000000     0.0496206  
H159     H      0.999390000000     0.252460000000     0.835600000000     0.0465285  
H160     H      0.973140000000     0.192690000000     0.612530000000     0.0934901  
H161     H      0.053790000000     0.168600000000     0.688450000000    -0.000361359
H162     H      0.974350000000     0.332440000000     0.757410000000     0.0550349  
H163     H      0.056200000000     0.254990000000     0.774280000000     0.0422446  
H164     H      0.044230000000     0.688700000000     0.792940000000     0.0924513  
H165     H      0.045350000000     0.774530000000     0.701800000000     0.0481218  
H166     H      0.964900000000     0.752330000000     0.624240000000     0.0462244  
H167     H      0.981490000000     0.692900000000     0.848230000000     0.102681   
H168     H      0.904890000000     0.667180000000     0.769110000000     0.00113682 
H169     H      0.985070000000     0.832550000000     0.703550000000     0.0524835  
H170     H      0.905000000000     0.754470000000     0.682620000000     0.0426046  
H171     H      0.912600000000     0.763270000000     0.292260000000     0.0845053  
H172     H      0.915060000000     0.677450000000     0.200450000000     0.0490836  
H173     H      0.995480000000     0.703020000000     0.123910000000     0.0660424  
H174     H      0.975030000000     0.760760000000     0.347930000000     0.0894902  
H175     H      0.051350000000     0.789450000000     0.269670000000     0.00252388 
H176     H      0.977510000000     0.621720000000     0.202710000000     0.0650767  
H177     H      0.054770000000     0.702610000000     0.182850000000     0.0555505  
H178     H      0.895430000000     0.182740000000     0.253670000000     0.0866023  
H179     H      0.902690000000     0.267690000000     0.165830000000     0.0518834  
H180     H      0.980720000000     0.343440000000     0.195780000000     0.0630093  
H181     H      0.951520000000     0.120750000000     0.253640000000     0.103263   
H182     H      0.035820000000     0.193940000000     0.278470000000     0.00328753 
H183     H      0.966950000000     0.263220000000     0.112230000000     0.0533052  
H184     H      0.041690000000     0.286360000000     0.193730000000     0.0494266  
N1       N      0.460380000000     0.179080000000     0.270790000000    -0.190005   
N2       N      0.485560000000     0.270690000000     0.178690000000    -0.152891   
N3       N      0.497220000000     0.770060000000     0.278250000000    -0.190901   
N4       N      0.470860000000     0.679480000000     0.186150000000    -0.15358    
N5       N      0.459990000000     0.687320000000     0.777690000000    -0.19354    
N6       N      0.489740000000     0.777190000000     0.686630000000    -0.153205   
N7       N      0.472590000000     0.185540000000     0.680140000000    -0.190894   
N8       N      0.497810000000     0.279160000000     0.769480000000    -0.153898   
N9       N      0.679600000000     0.185060000000     0.458360000000    -0.193137   
N10      N      0.772230000000     0.274400000000     0.484430000000    -0.152793   
N11      N      0.775440000000     0.682730000000     0.475820000000    -0.193272   
N12      N      0.685800000000     0.777010000000     0.496910000000    -0.152872   
N13      N      0.181490000000     0.271630000000     0.464690000000    -0.190384   
N14      N      0.271880000000     0.178820000000     0.488070000000    -0.150125   
N15      N      0.185820000000     0.678300000000     0.495760000000    -0.191745   
N16      N      0.277210000000     0.770670000000     0.473000000000    -0.150979   
N17      N      0.684020000000     0.468540000000     0.181450000000    -0.191474   
N18      N      0.773840000000     0.491590000000     0.275290000000    -0.152168   
N19      N      0.181520000000     0.469460000000     0.273910000000    -0.189419   
N20      N      0.274880000000     0.487260000000     0.182240000000    -0.154014   
N21      N      0.183570000000     0.457420000000     0.682960000000    -0.190018   
N22      N      0.273870000000     0.489560000000     0.773110000000    -0.154044   
N23      N      0.683830000000     0.497940000000     0.774000000000    -0.192785   
N24      N      0.773390000000     0.466320000000     0.683370000000    -0.151436   
N25      N      0.771290000000     0.777060000000     0.997790000000    -0.194114   
N26      N      0.680880000000     0.685360000000     0.971410000000    -0.148821   
N27      N      0.685600000000     0.277770000000     0.958560000000    -0.190576   
N28      N      0.776460000000     0.184770000000     0.982200000000    -0.151435   
N29      N      0.180380000000     0.771150000000     0.000030000000    -0.192376   
N30      N      0.272020000000     0.681200000000     0.970350000000    -0.151722   
N31      N      0.186130000000     0.179980000000     0.985950000000    -0.192666   
N32      N      0.276380000000     0.272890000000     0.961780000000    -0.154497   
N33      N      0.774620000000     0.967180000000     0.774130000000    -0.190042   
N34      N      0.684670000000     0.996840000000     0.681840000000    -0.154081   
N35      N      0.274700000000     0.982890000000     0.684180000000    -0.190925   
N36      N      0.184840000000     0.959090000000     0.777990000000    -0.151381   
N37      N      0.181560000000     0.992820000000     0.186570000000    -0.191842   
N38      N      0.272900000000     0.962150000000     0.275910000000    -0.153881   
N39      N      0.681730000000     0.964880000000     0.272140000000    -0.193414   
N40      N      0.773340000000     0.995590000000     0.182830000000    -0.152816   
N41      N      0.997750000000     0.175570000000     0.769570000000    -0.195097   
N42      N      0.970000000000     0.267760000000     0.679890000000    -0.153124   
N43      N      0.963630000000     0.675420000000     0.690070000000    -0.192948   
N44      N      0.987060000000     0.767950000000     0.781210000000    -0.151732   
N45      N      0.993460000000     0.779610000000     0.190200000000    -0.191809   
N46      N      0.972210000000     0.685830000000     0.280490000000    -0.15249    
N47      N      0.981500000000     0.276250000000     0.271350000000    -0.191674   
N48      N      0.957960000000     0.187020000000     0.177540000000    -0.152803   
O1       O      0.971960000000     0.158230000000     0.075600000000    -0.369636   
O2       O      0.982930000000     0.804710000000     0.087010000000    -0.366045   
O3       O      0.876260000000     0.986060000000     0.156480000000    -0.363303   
O4       O      0.078710000000     0.987610000000     0.157790000000    -0.324424   
O5       O      0.154760000000     0.982280000000     0.083700000000    -0.368592   
O6       O      0.801810000000     0.987620000000     0.080290000000    -0.357011   
O7       O      0.983790000000     0.881810000000     0.160080000000    -0.323421   
O8       O      0.969770000000     0.084490000000     0.152340000000    -0.361104   
O9       O      0.040520000000     0.916110000000     0.045530000000    -0.510323   
O10      O      0.916760000000     0.042870000000     0.039960000000    -0.51307    
O11      O      0.914120000000     0.917180000000     0.045220000000    -0.660033   
O12      O      0.042020000000     0.042610000000     0.042150000000    -0.655077   
O13      O      0.980120000000     0.797880000000     0.883670000000    -0.363171   
O14      O      0.987490000000     0.150870000000     0.872900000000    -0.380982   
O15      O      0.800710000000     0.879100000000     0.987010000000    -0.323513   
O16      O      0.154110000000     0.874310000000     0.990880000000    -0.373769   
O17      O      0.156770000000     0.077430000000     0.980740000000    -0.331388   
O18      O      0.802930000000     0.081480000000     0.978790000000    -0.359332   
O19      O      0.878040000000     0.971500000000     0.802030000000    -0.369132   
O20      O      0.082050000000     0.967690000000     0.805060000000    -0.360709   
O21      O      0.802840000000     0.973450000000     0.877200000000    -0.323216   
O22      O      0.157170000000     0.970020000000     0.880650000000    -0.364264   
O23      O      0.874610000000     0.802790000000     0.988970000000    -0.376734   
O24      O      0.879090000000     0.155820000000     0.976260000000    -0.370394   
O25      O      0.082670000000     0.153570000000     0.980420000000    -0.379009   
O26      O      0.077890000000     0.800290000000     0.990630000000    -0.328108   
O27      O      0.981290000000     0.871190000000     0.806440000000    -0.370418   
O28      O      0.987650000000     0.073550000000     0.800030000000    -0.331425   
O29      O      0.043400000000     0.038270000000     0.915570000000    -0.505779   
O30      O      0.915010000000     0.913280000000     0.918070000000    -0.512256   
O31      O      0.916390000000     0.040420000000     0.913840000000    -0.655718   
O32      O      0.041560000000     0.912380000000     0.919980000000    -0.65726    
O33      O      0.977250000000     0.303230000000     0.374500000000    -0.333282   
O34      O      0.978440000000     0.656040000000     0.382820000000    -0.37196    
O35      O      0.876440000000     0.483820000000     0.303110000000    -0.371014   
O36      O      0.079010000000     0.477070000000     0.302860000000    -0.331866   
O37      O      0.154820000000     0.475740000000     0.377400000000    -0.355403   
O38      O      0.800920000000     0.482050000000     0.378190000000    -0.364414   
O39      O      0.977830000000     0.582470000000     0.305780000000    -0.363495   
O40      O      0.977790000000     0.379140000000     0.300190000000    -0.366884   
O41      O      0.042190000000     0.541440000000     0.417500000000    -0.508932   
O42      O      0.913960000000     0.414790000000     0.414630000000    -0.508826   
O43      O      0.916270000000     0.541590000000     0.418750000000    -0.661925   
O44      O      0.040180000000     0.414950000000     0.415520000000    -0.667587   
O45      O      0.972720000000     0.650190000000     0.586560000000    -0.377805   
O46      O      0.975880000000     0.297350000000     0.577480000000    -0.370161   
O47      O      0.803210000000     0.579780000000     0.480440000000    -0.331953   
O48      O      0.156350000000     0.576150000000     0.485800000000    -0.323091   
O49      O      0.153580000000     0.374220000000     0.473540000000    -0.318272   
O50      O      0.800790000000     0.376780000000     0.479470000000    -0.371306   
O51      O      0.876350000000     0.470680000000     0.655990000000    -0.361741   
O52      O      0.080360000000     0.467290000000     0.656510000000    -0.369508   
O53      O      0.801040000000     0.474500000000     0.580710000000    -0.363651   
O54      O      0.154650000000     0.466320000000     0.580450000000    -0.31308    
O55      O      0.878510000000     0.654750000000     0.481120000000    -0.376386   
O56      O      0.875330000000     0.300830000000     0.478140000000    -0.364799   
O57      O      0.078500000000     0.299080000000     0.473380000000    -0.366853   
O58      O      0.082300000000     0.652320000000     0.487900000000    -0.37812    
O59      O      0.973040000000     0.573280000000     0.659880000000    -0.332185   
O60      O      0.975450000000     0.370980000000     0.654360000000    -0.370784   
O61      O      0.041180000000     0.411520000000     0.541600000000    -0.511514   
O62      O      0.915770000000     0.538670000000     0.544510000000    -0.507159   
O63      O      0.914900000000     0.412990000000     0.541360000000    -0.663086   
O64      O      0.042310000000     0.537970000000     0.545220000000    -0.66106    
O65      O      0.654900000000     0.972060000000     0.375400000000    -0.37747    
O66      O      0.301530000000     0.971650000000     0.378160000000    -0.370457   
O67      O      0.485300000000     0.872940000000     0.303970000000    -0.366412   
O68      O      0.471180000000     0.076350000000     0.299070000000    -0.367367   
O69      O      0.468400000000     0.151730000000     0.373890000000    -0.320465   
O70      O      0.489150000000     0.799670000000     0.380830000000    -0.329348   
O71      O      0.376110000000     0.968730000000     0.302130000000    -0.373209   
O72      O      0.579040000000     0.972820000000     0.300870000000    -0.332377   
O73      O      0.414040000000     0.038830000000     0.414420000000    -0.510565   
O74      O      0.542390000000     0.915060000000     0.416490000000    -0.507952   
O75      O      0.416640000000     0.912410000000     0.416780000000    -0.660655   
O76      O      0.540800000000     0.040770000000     0.413170000000    -0.657623   
O77      O      0.303070000000     0.977010000000     0.581230000000    -0.331231   
O78      O      0.657000000000     0.988630000000     0.578840000000    -0.371819   
O79      O      0.379960000000     0.799520000000     0.478870000000    -0.364213   
O80      O      0.374650000000     0.152040000000     0.480340000000    -0.359442   
O81      O      0.577370000000     0.155820000000     0.469420000000    -0.325599   
O82      O      0.583250000000     0.803700000000     0.486830000000    -0.362759   
O83      O      0.483960000000     0.879620000000     0.657670000000    -0.370977   
O84      O      0.476700000000     0.082470000000     0.653000000000    -0.330151   
O85      O      0.482890000000     0.803250000000     0.583520000000    -0.371048   
O86      O      0.477070000000     0.156740000000     0.577030000000    -0.363629   
O87      O      0.303530000000     0.873630000000     0.479170000000    -0.363665   
O88      O      0.658090000000     0.879410000000     0.485020000000    -0.373039   
O89      O      0.653970000000     0.082200000000     0.469340000000    -0.379857   
O90      O      0.299980000000     0.076170000000     0.480560000000    -0.36121    
O91      O      0.378100000000     0.980130000000     0.656530000000    -0.367546   
O92      O      0.581850000000     0.987850000000     0.654430000000    -0.360386   
O93      O      0.541750000000     0.043130000000     0.540350000000    -0.507768   
O94      O      0.416610000000     0.914420000000     0.544000000000    -0.509978   
O95      O      0.543570000000     0.917500000000     0.542590000000    -0.658602   
O96      O      0.415520000000     0.040470000000     0.540740000000    -0.663853   
O97      O      0.378920000000     0.301350000000     0.969620000000    -0.374938   
O98      O      0.375140000000     0.654670000000     0.977030000000    -0.361822   
O99      O      0.302360000000     0.479490000000     0.079390000000    -0.373747   
O100     O      0.301590000000     0.483210000000     0.875970000000    -0.371293   
O101     O      0.376810000000     0.483390000000     0.800520000000    -0.372606   
O102     O      0.377590000000     0.478300000000     0.154880000000    -0.371992   
O103     O      0.300780000000     0.578560000000     0.974710000000    -0.368582   
O104     O      0.302660000000     0.375620000000     0.972140000000    -0.376686   
O105     O      0.415420000000     0.541960000000     0.916030000000    -0.508431   
O106     O      0.415800000000     0.413500000000     0.039890000000    -0.505746   
O107     O      0.414910000000     0.539990000000     0.041610000000    -0.656159   
O108     O      0.416190000000     0.416240000000     0.912310000000    -0.651694   
O109     O      0.578210000000     0.656930000000     0.977200000000    -0.365748   
O110     O      0.582430000000     0.303860000000     0.969050000000    -0.374185   
O111     O      0.477340000000     0.577160000000     0.156600000000    -0.36952    
O112     O      0.470770000000     0.584290000000     0.802990000000    -0.376371   
O113     O      0.486370000000     0.381510000000     0.797590000000    -0.372911   
O114     O      0.479770000000     0.373710000000     0.151920000000    -0.370415   
O115     O      0.655390000000     0.476120000000     0.078630000000    -0.32248    
O116     O      0.655100000000     0.487370000000     0.876290000000    -0.319837   
O117     O      0.580740000000     0.474590000000     0.154360000000    -0.375782   
O118     O      0.580590000000     0.489320000000     0.800480000000    -0.378269   
O119     O      0.475000000000     0.653750000000     0.082670000000    -0.37217    
O120     O      0.482120000000     0.299450000000     0.075600000000    -0.371554   
O121     O      0.487340000000     0.305520000000     0.872170000000    -0.370092   
O122     O      0.469920000000     0.657560000000     0.879910000000    -0.329857   
O123     O      0.654290000000     0.582500000000     0.977610000000    -0.352002   
O124     O      0.656280000000     0.380220000000     0.967990000000    -0.313139   
O125     O      0.542080000000     0.418380000000     0.913190000000    -0.510922   
O126     O      0.541600000000     0.542280000000     0.042530000000    -0.51052    
O127     O      0.542590000000     0.415360000000     0.039150000000    -0.660214   
O128     O      0.540700000000     0.544520000000     0.915220000000    -0.661402   
Zr1      Zr     0.977880000000     0.981570000000     0.105690000000     1.46099    
Zr2      Zr     0.977060000000     0.852320000000     0.983990000000     1.44245    
Zr3      Zr     0.980340000000     0.103620000000     0.976040000000     1.42876    
Zr4      Zr     0.853220000000     0.979380000000     0.979030000000     1.45532    
Zr5      Zr     0.104610000000     0.976580000000     0.981630000000     1.44223    
Zr6      Zr     0.979660000000     0.974040000000     0.854460000000     1.43576    
Zr7      Zr     0.977900000000     0.479540000000     0.354180000000     1.44696    
Zr8      Zr     0.979710000000     0.602470000000     0.483280000000     1.42728    
Zr9      Zr     0.977220000000     0.351190000000     0.477180000000     1.44973    
Zr10     Zr     0.852770000000     0.477650000000     0.479570000000     1.45061    
Zr11     Zr     0.103620000000     0.475880000000     0.479440000000     1.4756     
Zr12     Zr     0.978400000000     0.473560000000     0.605700000000     1.44505    
Zr13     Zr     0.477920000000     0.975590000000     0.352540000000     1.4426     
Zr14     Zr     0.353340000000     0.975590000000     0.479290000000     1.44579    
Zr15     Zr     0.605000000000     0.980010000000     0.477610000000     1.42758    
Zr16     Zr     0.480940000000     0.852560000000     0.481220000000     1.44785    
Zr17     Zr     0.476980000000     0.103030000000     0.476250000000     1.46245    
Zr18     Zr     0.479680000000     0.980060000000     0.604460000000     1.44544    
Zr19     Zr     0.352980000000     0.477390000000     0.977320000000     1.42824    
Zr20     Zr     0.477190000000     0.604600000000     0.980100000000     1.44721    
Zr21     Zr     0.480010000000     0.353440000000     0.974950000000     1.4269     
Zr22     Zr     0.478890000000     0.476550000000     0.103220000000     1.42931    
Zr23     Zr     0.478730000000     0.481670000000     0.851230000000     1.43601    
Zr24     Zr     0.603940000000     0.480820000000     0.977310000000     1.47362    


