data_structure

_audit_creation_method RASPA-1.0
_audit_creation_date 2023-5-19
_audit_author_name 'Poobodin Mano'

_cell_length_a    21.5287
_cell_length_b    21.5589
_cell_length_c    21.5788
_cell_angle_alpha 90
_cell_angle_beta  90
_cell_angle_gamma 90
_cell_volume      10015.5

_symmetry_cell_setting          triclinic
_symmetry_space_group_name_Hall 'P 1'
_symmetry_space_group_name_H-M  'P 1'
_symmetry_Int_Tables_number     1

_symmetry_equiv_pos_as_xyz 'x,y,z'

loop_
_atom_site_label
_atom_site_type_symbol
_atom_site_fract_x
_atom_site_fract_y
_atom_site_fract_z
_atom_site_charge
C1       C      0.975580000000     0.133110000000     0.133090000000     0.395952   
C2       C      0.978950000000     0.816100000000     0.131770000000     0.395233   
C3       C      0.818470000000     0.975680000000     0.132820000000     0.396664   
C4       C      0.134910000000     0.976300000000     0.131740000000     0.394481   
C5       C      0.973730000000     0.818470000000     0.813140000000     0.394939   
C6       C      0.977070000000     0.136110000000     0.816890000000     0.396777   
C7       C      0.818470000000     0.815710000000     0.972290000000     0.395594   
C8       C      0.136740000000     0.818040000000     0.976750000000     0.39611    
C9       C      0.134140000000     0.134550000000     0.974660000000     0.396152   
C10      C      0.816680000000     0.132810000000     0.974520000000     0.395018   
C11      C      0.815870000000     0.974680000000     0.816640000000     0.395407   
C12      C      0.134150000000     0.975790000000     0.814010000000     0.39339    
C13      C      0.978150000000     0.314500000000     0.316820000000     0.396265   
C14      C      0.977600000000     0.632120000000     0.313520000000     0.395038   
C15      C      0.817960000000     0.472930000000     0.313670000000     0.396327   
C16      C      0.136460000000     0.476360000000     0.316590000000     0.396562   
C17      C      0.972150000000     0.634560000000     0.631290000000     0.394667   
C18      C      0.978200000000     0.317630000000     0.633040000000     0.39591    
C19      C      0.815230000000     0.631090000000     0.473720000000     0.395469   
C20      C      0.133290000000     0.634960000000     0.472280000000     0.395489   
C21      C      0.136070000000     0.318210000000     0.475100000000     0.396485   
C22      C      0.819790000000     0.314280000000     0.474580000000     0.396706   
C23      C      0.815060000000     0.473630000000     0.630170000000     0.396003   
C24      C      0.133560000000     0.476360000000     0.632800000000     0.396623   
C25      C      0.637270000000     0.976250000000     0.316960000000     0.39523    
C26      C      0.319530000000     0.979160000000     0.312590000000     0.395934   
C27      C      0.480380000000     0.817440000000     0.313410000000     0.394948   
C28      C      0.476810000000     0.134860000000     0.315430000000     0.395819   
C29      C      0.314970000000     0.975690000000     0.628980000000     0.395433   
C30      C      0.633870000000     0.975160000000     0.632840000000     0.395442   
C31      C      0.315170000000     0.819070000000     0.471970000000     0.395708   
C32      C      0.319870000000     0.136760000000     0.469940000000     0.397557   
C33      C      0.635870000000     0.132950000000     0.475860000000     0.397113   
C34      C      0.633780000000     0.815480000000     0.475200000000     0.395355   
C35      C      0.472030000000     0.817170000000     0.631830000000     0.394167   
C36      C      0.479050000000     0.134330000000     0.631520000000     0.396525   
C37      C      0.314960000000     0.319040000000     0.975410000000     0.397252   
C38      C      0.318440000000     0.634560000000     0.973920000000     0.396218   
C39      C      0.318170000000     0.475660000000     0.132730000000     0.396578   
C40      C      0.315440000000     0.476940000000     0.816360000000     0.396832   
C41      C      0.636750000000     0.631630000000     0.972610000000     0.39615    
C42      C      0.632370000000     0.313930000000     0.969510000000     0.39633    
C43      C      0.480630000000     0.633130000000     0.131940000000     0.394334   
C44      C      0.473590000000     0.633050000000     0.813630000000     0.395237   
C45      C      0.475620000000     0.315710000000     0.815390000000     0.396081   
C46      C      0.473390000000     0.316040000000     0.131310000000     0.396501   
C47      C      0.636460000000     0.474250000000     0.129620000000     0.396412   
C48      C      0.633410000000     0.472580000000     0.813960000000     0.39595    
C49      C      0.478890000000     0.241210000000     0.284070000000     0.0315828  
C50      C      0.470430000000     0.162730000000     0.208900000000     0.0263076  
C51      C      0.477680000000     0.286120000000     0.237390000000     0.031023   
C52      C      0.468040000000     0.207340000000     0.161830000000     0.0506865  
C53      C      0.458140000000     0.183670000000     0.099760000000     0.0621358  
C54      C      0.477340000000     0.664530000000     0.238210000000     0.0310865  
C55      C      0.487780000000     0.739810000000     0.160080000000     0.0264541  
C56      C      0.477350000000     0.711240000000     0.283170000000     0.028945   
C57      C      0.488700000000     0.786950000000     0.204830000000     0.0489973  
C58      C      0.498910000000     0.849160000000     0.181590000000     0.058204   
C59      C      0.472450000000     0.785910000000     0.738220000000     0.0313492  
C60      C      0.470450000000     0.710190000000     0.659850000000     0.0261323  
C61      C      0.472950000000     0.739250000000     0.783240000000     0.0291284  
C62      C      0.470860000000     0.663020000000     0.704570000000     0.0484638  
C63      C      0.469490000000     0.600110000000     0.680820000000     0.0552595  
C64      C      0.471240000000     0.209500000000     0.783970000000     0.0319898  
C65      C      0.485540000000     0.287530000000     0.709160000000     0.0269845  
C66      C      0.472560000000     0.164480000000     0.737400000000     0.0311728  
C67      C      0.487920000000     0.242720000000     0.662210000000     0.0496396  
C68      C      0.501830000000     0.265620000000     0.600610000000     0.0597824  
C69      C      0.667340000000     0.238850000000     0.469680000000     0.0334611  
C70      C      0.742570000000     0.160950000000     0.483600000000     0.0277243  
C71      C      0.713920000000     0.283780000000     0.469390000000     0.0310621  
C72      C      0.789660000000     0.205760000000     0.484160000000     0.050548   
C73      C      0.851790000000     0.183010000000     0.496440000000     0.0602623  
C74      C      0.708660000000     0.662400000000     0.470030000000     0.0307924  
C75      C      0.787020000000     0.737510000000     0.481580000000     0.0268558  
C76      C      0.663650000000     0.709200000000     0.470530000000     0.0309415  
C77      C      0.742310000000     0.784620000000     0.483240000000     0.0492696  
C78      C      0.765650000000     0.846510000000     0.495310000000     0.0575005  
C79      C      0.167490000000     0.212140000000     0.477720000000     0.0320583  
C80      C      0.242850000000     0.290430000000     0.466960000000     0.0261247  
C81      C      0.213980000000     0.167140000000     0.475790000000     0.0308757  
C82      C      0.289840000000     0.245580000000     0.464140000000     0.0501527  
C83      C      0.351970000000     0.268630000000     0.452400000000     0.059642   
C84      C      0.239660000000     0.666430000000     0.472330000000     0.03095    
C85      C      0.160970000000     0.742070000000     0.471170000000     0.0263289  
C86      C      0.284670000000     0.713040000000     0.472310000000     0.0296218  
C87      C      0.205770000000     0.789280000000     0.471110000000     0.0487246  
C88      C      0.182030000000     0.852210000000     0.470150000000     0.0558054  
C89      C      0.743020000000     0.470780000000     0.160780000000     0.0307192  
C90      C      0.664470000000     0.478030000000     0.236180000000     0.0260831  
C91      C      0.788000000000     0.470390000000     0.207500000000     0.029473   
C92      C      0.709110000000     0.478280000000     0.283280000000     0.0486715  
C93      C      0.685310000000     0.485480000000     0.345690000000     0.0546037  
C94      C      0.211820000000     0.476690000000     0.164110000000     0.0311472  
C95      C      0.290540000000     0.475210000000     0.239680000000     0.0262638  
C96      C      0.166840000000     0.476910000000     0.210680000000     0.0293946  
C97      C      0.245780000000     0.475380000000     0.286840000000     0.0486252  
C98      C      0.269560000000     0.473940000000     0.349680000000     0.0547362  
C99      C      0.239960000000     0.476800000000     0.663980000000     0.0323862  
C100     C      0.161320000000     0.476860000000     0.739650000000     0.0262264  
C101     C      0.285010000000     0.477060000000     0.710480000000     0.0290677  
C102     C      0.206120000000     0.477130000000     0.786730000000     0.0484267  
C103     C      0.182360000000     0.477170000000     0.849610000000     0.0538161  
C104     C      0.739640000000     0.476810000000     0.782570000000     0.0309694  
C105     C      0.661270000000     0.466940000000     0.707280000000     0.0267838  
C106     C      0.784630000000     0.477110000000     0.736010000000     0.0301627  
C107     C      0.706110000000     0.466230000000     0.660230000000     0.0495637  
C108     C      0.682910000000     0.456340000000     0.597980000000     0.0581731  
C109     C      0.712070000000     0.784330000000     0.972480000000     0.0307791  
C110     C      0.790780000000     0.708680000000     0.971600000000     0.0256741  
C111     C      0.667110000000     0.737680000000     0.972650000000     0.0295501  
C112     C      0.746050000000     0.661460000000     0.971760000000     0.0481049  
C113     C      0.769830000000     0.598550000000     0.971080000000     0.0526365  
C114     C      0.785010000000     0.238860000000     0.977550000000     0.0314331  
C115     C      0.709960000000     0.160540000000     0.965090000000     0.0260729  
C116     C      0.738360000000     0.283770000000     0.975770000000     0.0295357  
C117     C      0.662890000000     0.205340000000     0.962060000000     0.0499551  
C118     C      0.601180000000     0.182490000000     0.948070000000     0.0605767  
C119     C      0.212510000000     0.666120000000     0.965970000000     0.0306801  
C120     C      0.289710000000     0.740320000000     0.987390000000     0.0272506  
C121     C      0.167350000000     0.712560000000     0.967140000000     0.029785   
C122     C      0.244470000000     0.786890000000     0.990650000000     0.0480067  
C123     C      0.265510000000     0.846650000000     0.012760000000     0.0654175  
C124     C      0.208480000000     0.287750000000     0.971980000000     0.0318459  
C125     C      0.287140000000     0.212550000000     0.980680000000     0.0259348  
C126     C      0.163650000000     0.240870000000     0.971760000000     0.0297414  
C127     C      0.242670000000     0.165350000000     0.981480000000     0.0508992  
C128     C      0.266510000000     0.103280000000     0.991100000000     0.0589578  
C129     C      0.740300000000     0.975180000000     0.664180000000     0.0318402  
C130     C      0.661650000000     0.974970000000     0.739790000000     0.0264212  
C131     C      0.785370000000     0.974930000000     0.710700000000     0.0302043  
C132     C      0.706490000000     0.974840000000     0.786910000000     0.0487003  
C133     C      0.682740000000     0.975260000000     0.849780000000     0.0550439  
C134     C      0.208430000000     0.979900000000     0.660600000000     0.0318922  
C135     C      0.287080000000     0.969250000000     0.735410000000     0.0266158  
C136     C      0.163620000000     0.979880000000     0.707610000000     0.0296813  
C137     C      0.242620000000     0.968250000000     0.782670000000     0.0489446  
C138     C      0.266450000000     0.957330000000     0.844390000000     0.0574059  
C139     C      0.166600000000     0.972170000000     0.237780000000     0.0323924  
C140     C      0.241440000000     0.986100000000     0.159710000000     0.0265069  
C141     C      0.213400000000     0.973290000000     0.282600000000     0.0302359  
C142     C      0.288760000000     0.987220000000     0.204210000000     0.0520331  
C143     C      0.350820000000     0.998520000000     0.180880000000     0.0621528  
C144     C      0.712300000000     0.971760000000     0.164450000000     0.033213   
C145     C      0.790800000000     0.982600000000     0.239510000000     0.0270284  
C146     C      0.667440000000     0.972100000000     0.211100000000     0.0291713  
C147     C      0.746040000000     0.984020000000     0.286630000000     0.0502056  
C148     C      0.769060000000     0.996070000000     0.348580000000     0.0576783  
C149     C      0.979790000000     0.211400000000     0.664400000000     0.0312242  
C150     C      0.977510000000     0.289970000000     0.739960000000     0.0262053  
C151     C      0.979290000000     0.166450000000     0.710960000000     0.030314   
C152     C      0.977120000000     0.245270000000     0.787100000000     0.0486496  
C153     C      0.975670000000     0.269040000000     0.849940000000     0.053977   
C154     C      0.972740000000     0.665880000000     0.737510000000     0.0307007  
C155     C      0.970360000000     0.741620000000     0.659150000000     0.0260066  
C156     C      0.973240000000     0.712430000000     0.782540000000     0.0284402  
C157     C      0.970640000000     0.788770000000     0.703970000000     0.0483609  
C158     C      0.968680000000     0.851700000000     0.680370000000     0.0560049  
C159     C      0.978640000000     0.663230000000     0.207090000000     0.0309832  
C160     C      0.979160000000     0.738990000000     0.285470000000     0.0262227  
C161     C      0.979040000000     0.709870000000     0.162050000000     0.0286025  
C162     C      0.979730000000     0.786110000000     0.240780000000     0.0484604  
C163     C      0.980860000000     0.848990000000     0.264630000000     0.0561349  
C164     C      0.970790000000     0.239110000000     0.164640000000     0.0310383  
C165     C      0.983600000000     0.160980000000     0.239650000000     0.0263707  
C166     C      0.971740000000     0.284060000000     0.211160000000     0.0295783  
C167     C      0.985710000000     0.205820000000     0.286620000000     0.0500216  
C168     C      0.998850000000     0.183010000000     0.348400000000     0.0571257  
H1       H      0.888630000000     0.885190000000     0.062350000000     0.21246    
H2       H      0.064930000000     0.064110000000     0.062470000000     0.215368   
H3       H      0.886400000000     0.064340000000     0.886310000000     0.212977   
H4       H      0.064930000000     0.887560000000     0.883790000000     0.211901   
H5       H      0.887070000000     0.562220000000     0.383470000000     0.211775   
H6       H      0.066430000000     0.386780000000     0.386120000000     0.213242   
H7       H      0.887570000000     0.385960000000     0.562250000000     0.214306   
H8       H      0.063120000000     0.565400000000     0.562500000000     0.212664   
H9       H      0.387550000000     0.888040000000     0.383050000000     0.21166    
H10      H      0.567140000000     0.063850000000     0.385550000000     0.215089   
H11      H      0.562870000000     0.885820000000     0.562600000000     0.212135   
H12      H      0.387440000000     0.065570000000     0.561030000000     0.212688   
H13      H      0.389010000000     0.564830000000     0.062460000000     0.211616   
H14      H      0.384970000000     0.386910000000     0.885140000000     0.214028   
H15      H      0.564410000000     0.384870000000     0.061220000000     0.213107   
H16      H      0.564900000000     0.562380000000     0.883520000000     0.212227   
H17      H      0.481270000000     0.334140000000     0.251880000000     0.0413025  
H18      H      0.483170000000     0.256990000000     0.331570000000     0.0473919  
H19      H      0.467160000000     0.114280000000     0.195740000000     0.0542221  
H20      H      0.472660000000     0.696670000000     0.331030000000     0.0393281  
H21      H      0.472820000000     0.616960000000     0.253880000000     0.0387893  
H22      H      0.492740000000     0.752990000000     0.111730000000     0.0444455  
H23      H      0.473960000000     0.754060000000     0.831240000000     0.0406259  
H24      H      0.473150000000     0.833650000000     0.753990000000     0.03953    
H25      H      0.469360000000     0.696740000000     0.611330000000     0.0432975  
H26      H      0.466520000000     0.116660000000     0.751720000000     0.0422095  
H27      H      0.464410000000     0.193980000000     0.831250000000     0.0480683  
H28      H      0.491860000000     0.335820000000     0.696200000000     0.0464575  
H29      H      0.699340000000     0.331500000000     0.462960000000     0.0500632  
H30      H      0.619850000000     0.254380000000     0.463550000000     0.0484562  
H31      H      0.755600000000     0.112720000000     0.490280000000     0.0521355  
H32      H      0.615650000000     0.694860000000     0.465440000000     0.0410697  
H33      H      0.693010000000     0.614890000000     0.464900000000     0.0475889  
H34      H      0.835450000000     0.750630000000     0.487010000000     0.044637   
H35      H      0.199330000000     0.119220000000     0.480150000000     0.0436392  
H36      H      0.119970000000     0.196440000000     0.483160000000     0.0480156  
H37      H      0.255990000000     0.338880000000     0.462400000000     0.0489103  
H38      H      0.332780000000     0.698180000000     0.472790000000     0.0399214  
H39      H      0.255580000000     0.618710000000     0.472800000000     0.043144   
H40      H      0.112310000000     0.755420000000     0.470660000000     0.0444284  
H41      H      0.836090000000     0.466950000000     0.192970000000     0.038875   
H42      H      0.758780000000     0.467800000000     0.113150000000     0.0420448  
H43      H      0.615930000000     0.481650000000     0.249490000000     0.0435189  
H44      H      0.118730000000     0.477700000000     0.195860000000     0.0394247  
H45      H      0.195900000000     0.477240000000     0.116440000000     0.0407198  
H46      H      0.339190000000     0.474430000000     0.253020000000     0.0435468  
H47      H      0.333120000000     0.477190000000     0.695630000000     0.0456127  
H48      H      0.255820000000     0.476710000000     0.616290000000     0.0422188  
H49      H      0.112680000000     0.476780000000     0.753070000000     0.0427728  
H50      H      0.832580000000     0.481750000000     0.750670000000     0.0398192  
H51      H      0.755380000000     0.481080000000     0.830110000000     0.0429731  
H52      H      0.612780000000     0.462120000000     0.694120000000     0.0479268  
H53      H      0.618980000000     0.752520000000     0.973110000000     0.0403725  
H54      H      0.696160000000     0.832060000000     0.972770000000     0.0434909  
H55      H      0.839440000000     0.695310000000     0.971140000000     0.0416435  
H56      H      0.752830000000     0.331670000000     0.980940000000     0.0408509  
H57      H      0.832470000000     0.254600000000     0.983530000000     0.0421514  
H58      H      0.697000000000     0.112140000000     0.959610000000     0.0494785  
H59      H      0.119890000000     0.698570000000     0.957730000000     0.0384839  
H60      H      0.197420000000     0.619130000000     0.956250000000     0.0430647  
H61      H      0.337620000000     0.752790000000     0.997200000000     0.0435684  
H62      H      0.115560000000     0.255210000000     0.967550000000     0.0448858  
H63      H      0.192660000000     0.335350000000     0.968170000000     0.0434663  
H64      H      0.335650000000     0.199410000000     0.984890000000     0.0528549  
H65      H      0.833480000000     0.974870000000     0.695840000000     0.0465106  
H66      H      0.756170000000     0.975510000000     0.616520000000     0.0484791  
H67      H      0.613000000000     0.975030000000     0.753170000000     0.0437538  
H68      H      0.115540000000     0.984680000000     0.693430000000     0.0446911  
H69      H      0.192570000000     0.984460000000     0.613120000000     0.0434871  
H70      H      0.335580000000     0.964120000000     0.748410000000     0.0440933  
H71      H      0.199040000000     0.967590000000     0.330420000000     0.0457074  
H72      H      0.119160000000     0.965910000000     0.253470000000     0.0460269  
H73      H      0.254150000000     0.993130000000     0.111630000000     0.0587638  
H74      H      0.619490000000     0.967400000000     0.196610000000     0.0494592  
H75      H      0.696480000000     0.966980000000     0.116980000000     0.0431362  
H76      H      0.839270000000     0.987810000000     0.252520000000     0.0486829  
H77      H      0.980170000000     0.118400000000     0.696160000000     0.0434749  
H78      H      0.981070000000     0.195540000000     0.616760000000     0.047707   
H79      H      0.976750000000     0.338560000000     0.753320000000     0.042743   
H80      H      0.974430000000     0.697510000000     0.830510000000     0.038234   
H81      H      0.973630000000     0.618150000000     0.753310000000     0.0377423  
H82      H      0.969050000000     0.755050000000     0.610640000000     0.0438591  
H83      H      0.978910000000     0.695090000000     0.114030000000     0.0389297  
H84      H      0.978240000000     0.615480000000     0.191350000000     0.0375931  
H85      H      0.979390000000     0.752480000000     0.333990000000     0.0440907  
H86      H      0.966170000000     0.331900000000     0.196650000000     0.0386914  
H87      H      0.964910000000     0.254760000000     0.117250000000     0.0402517  
H88      H      0.989350000000     0.112630000000     0.252660000000     0.0467758  
N1       N      0.475610000000     0.179450000000     0.269840000000    -0.171872   
N2       N      0.472790000000     0.269900000000     0.175950000000    -0.173979   
N3       N      0.448280000000     0.160510000000     0.042170000000    -0.0899459  
N4       N      0.481880000000     0.678780000000     0.176570000000    -0.173122   
N5       N      0.482280000000     0.772790000000     0.267200000000    -0.173265   
N6       N      0.509060000000     0.906930000000     0.158900000000    -0.0937335  
N7       N      0.471500000000     0.771470000000     0.676460000000    -0.173035   
N8       N      0.472440000000     0.677530000000     0.767210000000    -0.173376   
N9       N      0.468230000000     0.541390000000     0.658260000000    -0.0998134  
N10      N      0.477180000000     0.271080000000     0.769850000000    -0.172553   
N11      N      0.480100000000     0.180430000000     0.676180000000    -0.173745   
N12      N      0.515470000000     0.287750000000     0.543370000000    -0.0925555  
N13      N      0.681640000000     0.177380000000     0.476330000000    -0.172628   
N14      N      0.775380000000     0.267940000000     0.476070000000    -0.173448   
N15      N      0.909500000000     0.160940000000     0.508590000000    -0.0932089  
N16      N      0.770410000000     0.676590000000     0.474900000000    -0.17254    
N17      N      0.679820000000     0.770630000000     0.476430000000    -0.173762   
N18      N      0.788240000000     0.904000000000     0.507270000000    -0.0938889  
N19      N      0.181870000000     0.273810000000     0.473660000000    -0.1727     
N20      N      0.275460000000     0.183140000000     0.469650000000    -0.174025   
N21      N      0.409740000000     0.290900000000     0.440870000000    -0.0934823  
N22      N      0.177770000000     0.680830000000     0.471890000000    -0.172982   
N23      N      0.268550000000     0.774750000000     0.471800000000    -0.173815   
N24      N      0.159470000000     0.910970000000     0.469240000000    -0.0991602  
N25      N      0.681210000000     0.474290000000     0.175120000000    -0.173386   
N26      N      0.771770000000     0.473790000000     0.269030000000    -0.174244   
N27      N      0.662270000000     0.492650000000     0.403730000000    -0.095096   
N28      N      0.273700000000     0.475850000000     0.178510000000    -0.17348    
N29      N      0.183020000000     0.476290000000     0.272310000000    -0.174001   
N30      N      0.292160000000     0.472550000000     0.408360000000    -0.100281   
N31      N      0.178100000000     0.476630000000     0.678480000000    -0.173756   
N32      N      0.268880000000     0.477130000000     0.772120000000    -0.173691   
N33      N      0.159800000000     0.477170000000     0.908320000000    -0.102752   
N34      N      0.677910000000     0.472200000000     0.768250000000    -0.172931   
N35      N      0.768620000000     0.472310000000     0.674540000000    -0.173963   
N36      N      0.660440000000     0.446400000000     0.540130000000    -0.0922883  
N37      N      0.773940000000     0.769920000000     0.972050000000    -0.173262   
N38      N      0.683290000000     0.675980000000     0.972370000000    -0.174145   
N39      N      0.792400000000     0.539790000000     0.970440000000    -0.103583   
N40      N      0.770830000000     0.177190000000     0.972810000000    -0.172778   
N41      N      0.676970000000     0.267700000000     0.968820000000    -0.173885   
N42      N      0.543910000000     0.160320000000     0.934110000000    -0.0921488  
N43      N      0.273810000000     0.680100000000     0.975270000000    -0.173692   
N44      N      0.182790000000     0.773360000000     0.978450000000    -0.173675   
N45      N      0.286980000000     0.901460000000     0.034790000000    -0.0877969  
N46      N      0.270270000000     0.273530000000     0.975960000000    -0.173115   
N47      N      0.180100000000     0.179370000000     0.975970000000    -0.173864   
N48      N      0.290410000000     0.045930000000     0.000730000000    -0.0846326  
N49      N      0.678400000000     0.975100000000     0.678610000000    -0.172758   
N50      N      0.769280000000     0.974740000000     0.772340000000    -0.173367   
N51      N      0.660150000000     0.975700000000     0.908480000000    -0.0998172  
N52      N      0.270240000000     0.975100000000     0.674550000000    -0.17325    
N53      N      0.180050000000     0.974630000000     0.769000000000    -0.172886   
N54      N      0.290550000000     0.946280000000     0.901300000000    -0.0884402  
N55      N      0.180650000000     0.977930000000     0.176230000000    -0.171653   
N56      N      0.274840000000     0.980040000000     0.266480000000    -0.173681   
N57      N      0.408320000000     0.009170000000     0.157590000000    -0.0884096  
N58      N      0.774040000000     0.976480000000     0.178610000000    -0.173271   
N59      N      0.683580000000     0.977490000000     0.272500000000    -0.17321    
N60      N      0.791270000000     0.008280000000     0.406120000000    -0.0902505  
N61      N      0.978600000000     0.273180000000     0.678790000000    -0.172949   
N62      N      0.977810000000     0.182590000000     0.772590000000    -0.173908   
N63      N      0.974300000000     0.291610000000     0.908630000000    -0.102784   
N64      N      0.971650000000     0.680360000000     0.675770000000    -0.173434   
N65      N      0.972500000000     0.774160000000     0.766590000000    -0.173554   
N66      N      0.966820000000     0.910460000000     0.657950000000    -0.0994117  
N67      N      0.978460000000     0.677730000000     0.268840000000    -0.17337    
N68      N      0.979350000000     0.771580000000     0.178110000000    -0.173547   
N69      N      0.981890000000     0.907690000000     0.287300000000    -0.0988852  
N70      N      0.976340000000     0.177520000000     0.178840000000    -0.173158   
N71      N      0.978680000000     0.268140000000     0.272450000000    -0.174107   
N72      N      0.011990000000     0.161000000000     0.405800000000    -0.09155    
O1       O      0.974080000000     0.151240000000     0.075900000000    -0.371135   
O2       O      0.978580000000     0.798130000000     0.074310000000    -0.368105   
O3       O      0.876250000000     0.976200000000     0.149420000000    -0.371591   
O4       O      0.077580000000     0.974320000000     0.149710000000    -0.368255   
O5       O      0.151600000000     0.977380000000     0.074030000000    -0.363447   
O6       O      0.800370000000     0.974400000000     0.075590000000    -0.370997   
O7       O      0.978420000000     0.873780000000     0.147720000000    -0.369265   
O8       O      0.977120000000     0.075380000000     0.149620000000    -0.370868   
O9       O      0.039590000000     0.912290000000     0.035600000000    -0.506824   
O10      O      0.913050000000     0.037590000000     0.037380000000    -0.507336   
O11      O      0.914300000000     0.911190000000     0.036430000000    -0.653408   
O12      O      0.039050000000     0.038330000000     0.036560000000    -0.6575     
O13      O      0.975350000000     0.800000000000     0.870410000000    -0.37056    
O14      O      0.976600000000     0.151700000000     0.874640000000    -0.36958    
O15      O      0.800470000000     0.873060000000     0.973070000000    -0.369305   
O16      O      0.152870000000     0.875800000000     0.976250000000    -0.364519   
O17      O      0.150520000000     0.076950000000     0.972960000000    -0.366182   
O18      O      0.800100000000     0.075040000000     0.973970000000    -0.368936   
O19      O      0.873290000000     0.976060000000     0.798310000000    -0.367383   
O20      O      0.076530000000     0.976570000000     0.796450000000    -0.367059   
O21      O      0.800270000000     0.973570000000     0.874370000000    -0.368486   
O22      O      0.150580000000     0.976050000000     0.871650000000    -0.365531   
O23      O      0.876240000000     0.798970000000     0.972140000000    -0.37488    
O24      O      0.874020000000     0.150990000000     0.975680000000    -0.369887   
O25      O      0.076580000000     0.152260000000     0.975200000000    -0.368013   
O26      O      0.079350000000     0.799890000000     0.974380000000    -0.372592   
O27      O      0.973590000000     0.876310000000     0.797620000000    -0.367426   
O28      O      0.976700000000     0.078820000000     0.798520000000    -0.369634   
O29      O      0.038260000000     0.039340000000     0.911060000000    -0.505521   
O30      O      0.914010000000     0.912730000000     0.910980000000    -0.504515   
O31      O      0.912560000000     0.038470000000     0.911860000000    -0.652975   
O32      O      0.038890000000     0.913150000000     0.909760000000    -0.652006   
O33      O      0.977980000000     0.298850000000     0.374610000000    -0.366382   
O34      O      0.976370000000     0.649170000000     0.371110000000    -0.373256   
O35      O      0.875530000000     0.473100000000     0.295880000000    -0.371767   
O36      O      0.079110000000     0.475200000000     0.298160000000    -0.370596   
O37      O      0.152030000000     0.477230000000     0.374360000000    -0.368288   
O38      O      0.801740000000     0.472270000000     0.371240000000    -0.369688   
O39      O      0.977830000000     0.574670000000     0.295880000000    -0.372121   
O40      O      0.977390000000     0.371760000000     0.298390000000    -0.372952   
O41      O      0.038370000000     0.537630000000     0.410580000000    -0.505595   
O42      O      0.914430000000     0.410800000000     0.410390000000    -0.506756   
O43      O      0.913060000000     0.536580000000     0.409440000000    -0.653907   
O44      O      0.040040000000     0.412640000000     0.411450000000    -0.653976   
O45      O      0.972750000000     0.651100000000     0.573520000000    -0.371952   
O46      O      0.978820000000     0.299620000000     0.575780000000    -0.367469   
O47      O      0.797810000000     0.573570000000     0.472430000000    -0.365577   
O48      O      0.151470000000     0.577710000000     0.473160000000    -0.370395   
O49      O      0.152610000000     0.375970000000     0.474420000000    -0.371017   
O50      O      0.801350000000     0.371530000000     0.472880000000    -0.366248   
O51      O      0.872430000000     0.474910000000     0.648540000000    -0.371833   
O52      O      0.075740000000     0.476410000000     0.649460000000    -0.372563   
O53      O      0.799390000000     0.473570000000     0.572400000000    -0.367116   
O54      O      0.151650000000     0.476340000000     0.575560000000    -0.371781   
O55      O      0.872850000000     0.648380000000     0.474000000000    -0.373844   
O56      O      0.877660000000     0.298640000000     0.474920000000    -0.367632   
O57      O      0.078800000000     0.300030000000     0.476090000000    -0.368618   
O58      O      0.075420000000     0.651450000000     0.472110000000    -0.372449   
O59      O      0.972580000000     0.577280000000     0.649390000000    -0.374057   
O60      O      0.976710000000     0.375330000000     0.649700000000    -0.373901   
O61      O      0.039080000000     0.413710000000     0.537810000000    -0.50814    
O62      O      0.911770000000     0.537520000000     0.535250000000    -0.509172   
O63      O      0.913290000000     0.412040000000     0.536470000000    -0.658515   
O64      O      0.037660000000     0.539040000000     0.536750000000    -0.655638   
O65      O      0.653030000000     0.974920000000     0.374730000000    -0.366512   
O66      O      0.301250000000     0.978790000000     0.369840000000    -0.368792   
O67      O      0.480060000000     0.875220000000     0.297500000000    -0.366826   
O68      O      0.476640000000     0.077190000000     0.298550000000    -0.367058   
O69      O      0.477830000000     0.152630000000     0.372740000000    -0.366986   
O70      O      0.478230000000     0.799380000000     0.370760000000    -0.370678   
O71      O      0.377430000000     0.977830000000     0.296760000000    -0.365981   
O72      O      0.579900000000     0.976290000000     0.298650000000    -0.367782   
O73      O      0.414820000000     0.039240000000     0.409570000000    -0.509054   
O74      O      0.539320000000     0.912130000000     0.411130000000    -0.508412   
O75      O      0.413310000000     0.913490000000     0.409430000000    -0.652228   
O76      O      0.540800000000     0.038080000000     0.411010000000    -0.660355   
O77      O      0.297480000000     0.977330000000     0.571550000000    -0.36895    
O78      O      0.652010000000     0.974810000000     0.575640000000    -0.368387   
O79      O      0.372530000000     0.800550000000     0.472020000000    -0.371857   
O80      O      0.377720000000     0.152420000000     0.471290000000    -0.368386   
O81      O      0.578620000000     0.151090000000     0.473670000000    -0.369396   
O82      O      0.576140000000     0.797840000000     0.474170000000    -0.369825   
O83      O      0.472940000000     0.874590000000     0.649610000000    -0.371113   
O84      O      0.476940000000     0.076890000000     0.649390000000    -0.369271   
O85      O      0.472250000000     0.800260000000     0.574170000000    -0.371902   
O86      O      0.479170000000     0.150490000000     0.573890000000    -0.366939   
O87      O      0.299680000000     0.876950000000     0.471910000000    -0.367981   
O88      O      0.650200000000     0.873100000000     0.474830000000    -0.367126   
O89      O      0.652450000000     0.075210000000     0.477240000000    -0.366993   
O90      O      0.301430000000     0.079490000000     0.470100000000    -0.369196   
O91      O      0.372610000000     0.974710000000     0.646160000000    -0.374899   
O92      O      0.575990000000     0.975320000000     0.649350000000    -0.372493   
O93      O      0.538960000000     0.037900000000     0.536860000000    -0.50929    
O94      O      0.412320000000     0.913630000000     0.534510000000    -0.504305   
O95      O      0.537460000000     0.911820000000     0.536440000000    -0.653505   
O96      O      0.413240000000     0.039370000000     0.535450000000    -0.653806   
O97      O      0.372550000000     0.301820000000     0.975320000000    -0.371263   
O98      O      0.376270000000     0.651290000000     0.975110000000    -0.373255   
O99      O      0.300040000000     0.476260000000     0.075510000000    -0.371581   
O100     O      0.299850000000     0.477440000000     0.874100000000    -0.36874    
O101     O      0.372800000000     0.475830000000     0.797990000000    -0.368915   
O102     O      0.375980000000     0.475140000000     0.149300000000    -0.37389    
O103     O      0.300340000000     0.577340000000     0.972370000000    -0.37111    
O104     O      0.297430000000     0.376480000000     0.974710000000    -0.370181   
O105     O      0.413150000000     0.538390000000     0.911070000000    -0.507572   
O106     O      0.412740000000     0.412820000000     0.036570000000    -0.508573   
O107     O      0.414380000000     0.538720000000     0.036370000000    -0.651999   
O108     O      0.411230000000     0.412600000000     0.910780000000    -0.659088   
O109     O      0.579430000000     0.650120000000     0.972350000000    -0.372773   
O110     O      0.574490000000     0.298150000000     0.970840000000    -0.366841   
O111     O      0.478650000000     0.575740000000     0.149710000000    -0.3716     
O112     O      0.473600000000     0.575280000000     0.797890000000    -0.369143   
O113     O      0.476310000000     0.373350000000     0.798440000000    -0.371815   
O114     O      0.474810000000     0.373480000000     0.149220000000    -0.370505   
O115     O      0.654020000000     0.473050000000     0.072230000000    -0.3697     
O116     O      0.651580000000     0.473120000000     0.871160000000    -0.370232   
O117     O      0.578820000000     0.475180000000     0.146770000000    -0.374894   
O118     O      0.575550000000     0.472710000000     0.797370000000    -0.3696     
O119     O      0.481040000000     0.650030000000     0.074280000000    -0.370602   
O120     O      0.473480000000     0.299960000000     0.073660000000    -0.366729   
O121     O      0.473780000000     0.298010000000     0.872710000000    -0.3673     
O122     O      0.474910000000     0.651190000000     0.871000000000    -0.36973    
O123     O      0.652260000000     0.573750000000     0.972820000000    -0.368423   
O124     O      0.650700000000     0.371220000000     0.970100000000    -0.3711     
O125     O      0.537520000000     0.411430000000     0.909840000000    -0.51102    
O126     O      0.539820000000     0.536860000000     0.035090000000    -0.504618   
O127     O      0.538670000000     0.411160000000     0.035670000000    -0.655359   
O128     O      0.539040000000     0.536850000000     0.909710000000    -0.653519   
Zr1      Zr     0.976890000000     0.974760000000     0.098140000000     1.43777    
Zr2      Zr     0.977310000000     0.849640000000     0.972740000000     1.42024    
Zr3      Zr     0.975440000000     0.100580000000     0.974910000000     1.43354    
Zr4      Zr     0.851450000000     0.974240000000     0.974620000000     1.43311    
Zr5      Zr     0.100610000000     0.975920000000     0.972990000000     1.44194    
Zr6      Zr     0.975450000000     0.976890000000     0.848480000000     1.42762    
Zr7      Zr     0.976830000000     0.473880000000     0.347710000000     1.42313    
Zr8      Zr     0.974760000000     0.599540000000     0.472670000000     1.42991    
Zr9      Zr     0.977720000000     0.350570000000     0.474790000000     1.44224    
Zr10     Zr     0.851160000000     0.473440000000     0.472300000000     1.44299    
Zr11     Zr     0.100800000000     0.476500000000     0.474650000000     1.43999    
Zr12     Zr     0.974560000000     0.476150000000     0.598730000000     1.42943    
Zr13     Zr     0.477980000000     0.975830000000     0.348540000000     1.43947    
Zr14     Zr     0.351010000000     0.977440000000     0.471610000000     1.4322     
Zr15     Zr     0.600940000000     0.974520000000     0.474840000000     1.44251    
Zr16     Zr     0.474930000000     0.849990000000     0.472500000000     1.42421    
Zr17     Zr     0.477690000000     0.100400000000     0.473010000000     1.44713    
Zr18     Zr     0.474880000000     0.975540000000     0.598050000000     1.42686    
Zr19     Zr     0.350770000000     0.476320000000     0.974450000000     1.43765    
Zr20     Zr     0.477480000000     0.600210000000     0.972710000000     1.42472    
Zr21     Zr     0.474360000000     0.350400000000     0.972980000000     1.44308    
Zr22     Zr     0.476830000000     0.474880000000     0.098070000000     1.43063    
Zr23     Zr     0.474530000000     0.474630000000     0.848520000000     1.4384     
Zr24     Zr     0.601060000000     0.473160000000     0.972220000000     1.43496    


