data_structure

_audit_creation_method RASPA-1.0
_audit_creation_date 2023-5-19
_audit_author_name 'Poobodin Mano'

_cell_length_a    33.7368
_cell_length_b    33.7425
_cell_length_c    33.7379
_cell_angle_alpha 90
_cell_angle_beta  90
_cell_angle_gamma 90
_cell_volume      38406

_symmetry_cell_setting          triclinic
_symmetry_space_group_name_Hall 'P 1'
_symmetry_space_group_name_H-M  'P 1'
_symmetry_Int_Tables_number     1

_symmetry_equiv_pos_as_xyz 'x,y,z'

loop_
_atom_site_label
_atom_site_type_symbol
_atom_site_fract_x
_atom_site_fract_y
_atom_site_fract_z
_atom_site_charge
Br1      Br     0.515840000000     0.057140000000     0.295940000000    -0.215608   
Br2      Br     0.509250000000     0.916950000000     0.292600000000    -0.216064   
Br3      Br     0.461800000000     0.792660000000     0.553580000000    -0.248311   
Br4      Br     0.501340000000     0.052940000000     0.677880000000    -0.246925   
Br5      Br     0.811470000000     0.403250000000     0.545310000000    -0.253438   
Br6      Br     0.677330000000     0.916850000000     0.506790000000    -0.231082   
Br7      Br     0.292070000000     0.052640000000     0.468210000000    -0.234486   
Br8      Br     0.293540000000     0.915370000000     0.500840000000    -0.234955   
Br9      Br     0.660310000000     0.426430000000     0.067360000000    -0.250889   
Br10     Br     0.415070000000     0.473850000000     0.178120000000    -0.250951   
Br11     Br     0.180660000000     0.473000000000     0.549840000000    -0.251473   
Br12     Br     0.919400000000     0.465920000000     0.679270000000    -0.250202   
Br13     Br     0.555080000000     0.676870000000     0.996960000000    -0.235111   
Br14     Br     0.551530000000     0.290930000000     0.998330000000    -0.248992   
Br15     Br     0.419110000000     0.679420000000     0.972530000000    -0.233247   
Br16     Br     0.178400000000     0.053950000000     0.994370000000    -0.22659    
Br17     Br     0.793870000000     0.958320000000     0.916900000000    -0.247711   
Br18     Br     0.176930000000     0.964440000000     0.915050000000    -0.22946    
Br19     Br     0.419640000000     0.992040000000     0.289800000000    -0.202411   
Br20     Br     0.679290000000     0.002040000000     0.419470000000    -0.225163   
Br21     Br     0.991440000000     0.048180000000     0.788880000000    -0.251192   
Br22     Br     0.978600000000     0.789030000000     0.922200000000    -0.235541   
Br23     Br     0.966170000000     0.795310000000     0.058770000000    -0.236593   
Br24     Br     0.968710000000     0.179630000000     0.048540000000    -0.249067   
C1       C      0.982980000000     0.089340000000     0.083130000000     0.405764   
C2       C      0.985160000000     0.886080000000     0.089030000000     0.405376   
C3       C      0.883800000000     0.988240000000     0.086590000000     0.398584   
C4       C      0.086500000000     0.986730000000     0.086330000000     0.397714   
C5       C      0.983800000000     0.880230000000     0.887050000000     0.407222   
C6       C      0.986460000000     0.082830000000     0.880290000000     0.405955   
C7       C      0.884530000000     0.883050000000     0.987070000000     0.398829   
C8       C      0.086490000000     0.883760000000     0.988210000000     0.397767   
C9       C      0.086720000000     0.086040000000     0.982770000000     0.405198   
C10      C      0.884020000000     0.086110000000     0.983280000000     0.397701   
C11      C      0.883040000000     0.980210000000     0.884440000000     0.406794   
C12      C      0.086280000000     0.981900000000     0.883550000000     0.404692   
C13      C      0.982100000000     0.385730000000     0.382010000000     0.396406   
C14      C      0.985300000000     0.588670000000     0.385980000000     0.397612   
C15      C      0.881860000000     0.486270000000     0.386510000000     0.397937   
C16      C      0.084270000000     0.487760000000     0.381450000000     0.397799   
C17      C      0.986740000000     0.584750000000     0.588210000000     0.398735   
C18      C      0.988120000000     0.382330000000     0.584790000000     0.399194   
C19      C      0.884140000000     0.586320000000     0.489100000000     0.396866   
C20      C      0.087130000000     0.586050000000     0.483460000000     0.397798   
C21      C      0.086770000000     0.383970000000     0.482600000000     0.398378   
C22      C      0.884270000000     0.383960000000     0.487040000000     0.409834   
C23      C      0.886900000000     0.485010000000     0.589240000000     0.410432   
C24      C      0.089440000000     0.482440000000     0.583780000000     0.40653    
C25      C      0.588730000000     0.986990000000     0.386000000000     0.406469   
C26      C      0.386110000000     0.986540000000     0.381600000000     0.405435   
C27      C      0.489950000000     0.884520000000     0.382630000000     0.406752   
C28      C      0.486640000000     0.086700000000     0.383800000000     0.406553   
C29      C      0.381900000000     0.983190000000     0.584060000000     0.397558   
C30      C      0.584750000000     0.985450000000     0.588040000000     0.398362   
C31      C      0.384270000000     0.883400000000     0.484180000000     0.40791    
C32      C      0.383040000000     0.085640000000     0.482180000000     0.407173   
C33      C      0.585910000000     0.086680000000     0.487300000000     0.399588   
C34      C      0.587450000000     0.884470000000     0.486810000000     0.405745   
C35      C      0.481890000000     0.882560000000     0.585370000000     0.407243   
C36      C      0.485290000000     0.085460000000     0.587220000000     0.406354   
C37      C      0.381950000000     0.385580000000     0.985330000000     0.397452   
C38      C      0.385540000000     0.588290000000     0.983750000000     0.406431   
C39      C      0.383480000000     0.485360000000     0.086300000000     0.406853   
C40      C      0.384160000000     0.487480000000     0.883510000000     0.398586   
C41      C      0.587740000000     0.585050000000     0.987940000000     0.405463   
C42      C      0.584590000000     0.381730000000     0.983970000000     0.409321   
C43      C      0.487120000000     0.586020000000     0.086680000000     0.397606   
C44      C      0.485750000000     0.586960000000     0.884520000000     0.39786    
C45      C      0.484770000000     0.384210000000     0.883480000000     0.397073   
C46      C      0.482300000000     0.383850000000     0.086330000000     0.398817   
C47      C      0.585800000000     0.482520000000     0.086830000000     0.409828   
C48      C      0.586790000000     0.483640000000     0.884030000000     0.397438   
C49      C      0.493270000000     0.136890000000     0.286460000000    -0.127678   
C50      C      0.478640000000     0.365780000000     0.154620000000     0.0750367  
C51      C      0.483660000000     0.315730000000     0.105630000000     0.0750136  
C52      C      0.477950000000     0.337220000000     0.184550000000    -0.087567   
C53      C      0.499870000000     0.272950000000     0.243020000000    -0.0350928  
C54      C      0.500230000000     0.243890000000     0.272560000000    -0.0303715  
C55      C      0.480580000000     0.266110000000     0.206640000000    -0.00257842 
C56      C      0.483450000000     0.286400000000     0.134880000000    -0.08735    
C57      C      0.481690000000     0.207170000000     0.266280000000    -0.0114171  
C58      C      0.476330000000     0.184170000000     0.336750000000    -0.102485   
C59      C      0.462270000000     0.200310000000     0.230090000000    -0.0299912  
C60      C      0.478140000000     0.153980000000     0.364990000000     0.0801339  
C61      C      0.495620000000     0.107170000000     0.315320000000     0.190443   
C62      C      0.461550000000     0.229480000000     0.200700000000    -0.0342611  
C63      C      0.480580000000     0.296920000000     0.174980000000     0.0502532  
C64      C      0.483460000000     0.175670000000     0.296920000000     0.0706283  
C65      C      0.497280000000     0.834880000000     0.284880000000    -0.127572   
C66      C      0.486100000000     0.604290000000     0.155030000000     0.0734064  
C67      C      0.490480000000     0.654110000000     0.105660000000     0.0748601  
C68      C      0.486770000000     0.632990000000     0.184820000000    -0.0896349  
C69      C      0.464490000000     0.702180000000     0.238570000000    -0.0357563  
C70      C      0.465030000000     0.731620000000     0.267710000000    -0.0299729  
C71      C      0.490570000000     0.704030000000     0.206140000000    -0.00276671 
C72      C      0.491540000000     0.683530000000     0.134740000000    -0.0867988  
C73      C      0.491810000000     0.763460000000     0.265170000000    -0.0113796  
C74      C      0.486680000000     0.786470000000     0.335760000000    -0.101617   
C75      C      0.518210000000     0.764970000000     0.232920000000    -0.0294177  
C76      C      0.486610000000     0.816800000000     0.363850000000     0.0789354  
C77      C      0.497470000000     0.864890000000     0.313540000000     0.188418   
C78      C      0.517500000000     0.735680000000     0.203690000000    -0.0351354  
C79      C      0.489610000000     0.673130000000     0.174860000000     0.0499443  
C80      C      0.491870000000     0.795300000000     0.295680000000     0.07009    
C81      C      0.476510000000     0.784890000000     0.635330000000    -0.12984    
C82      C      0.487630000000     0.655340000000     0.866280000000     0.0748594  
C83      C      0.483460000000     0.606060000000     0.816410000000     0.0734989  
C84      C      0.487610000000     0.685160000000     0.837550000000    -0.0869515  
C85      C      0.464470000000     0.742300000000     0.772010000000    -0.035289   
C86      C      0.463950000000     0.771440000000     0.742540000000    -0.0299052  
C87      C      0.485240000000     0.706600000000     0.766220000000    -0.00317883 
C88      C      0.483200000000     0.635130000000     0.786960000000    -0.0912071  
C89      C      0.484000000000     0.765460000000     0.706530000000    -0.01192    
C90      C      0.487120000000     0.836040000000     0.683500000000    -0.101937   
C91      C      0.504970000000     0.729940000000     0.700810000000    -0.0305916  
C92      C      0.486180000000     0.864080000000     0.653120000000     0.0791808  
C93      C      0.475230000000     0.813520000000     0.605290000000     0.189404   
C94      C      0.505680000000     0.700910000000     0.730320000000    -0.0354815  
C95      C      0.485370000000     0.675280000000     0.797290000000     0.0499828  
C96      C      0.482680000000     0.795890000000     0.674740000000     0.0701432  
C97      C      0.489290000000     0.135080000000     0.685220000000    -0.129596   
C98      C      0.483530000000     0.365940000000     0.815100000000     0.072394   
C99      C      0.485710000000     0.316030000000     0.864450000000     0.0729423  
C100     C      0.483130000000     0.337220000000     0.785280000000    -0.0919648  
C101     C      0.504930000000     0.271160000000     0.728310000000    -0.0357428  
C102     C      0.504800000000     0.241800000000     0.699050000000    -0.0310848  
C103     C      0.483680000000     0.265890000000     0.763810000000    -0.00414098 
C104     C      0.485520000000     0.286560000000     0.835370000000    -0.0898861  
C105     C      0.483600000000     0.206400000000     0.704700000000    -0.0121091  
C106     C      0.480740000000     0.183560000000     0.634010000000    -0.102917   
C107     C      0.462150000000     0.201210000000     0.740030000000    -0.0307087  
C108     C      0.481460000000     0.153210000000     0.605910000000     0.0783103  
C109     C      0.490350000000     0.105050000000     0.656560000000     0.188497   
C110     C      0.462110000000     0.230620000000     0.769190000000    -0.0352106  
C111     C      0.484110000000     0.296920000000     0.795180000000     0.0497118  
C112     C      0.484370000000     0.174640000000     0.674210000000     0.0697079  
C113     C      0.791730000000     0.330450000000     0.508630000000    -0.130195   
C114     C      0.653080000000     0.106210000000     0.497240000000     0.0778496  
C115     C      0.605700000000     0.153550000000     0.476220000000     0.0744755  
C116     C      0.682710000000     0.135090000000     0.497310000000    -0.0881823  
C117     C      0.745610000000     0.195430000000     0.478620000000    -0.0356603  
C118     C      0.775070000000     0.224540000000     0.479250000000    -0.0301398  
C119     C      0.705550000000     0.205320000000     0.484950000000    -0.00288793 
C120     C      0.634890000000     0.182820000000     0.474590000000    -0.0905558  
C121     C      0.765340000000     0.264710000000     0.484970000000    -0.011552   
C122     C      0.832350000000     0.291590000000     0.464950000000    -0.102211   
C123     C      0.725160000000     0.274690000000     0.490220000000    -0.0304619  
C124     C      0.861470000000     0.320890000000     0.466930000000     0.0805876  
C125     C      0.820810000000     0.359980000000     0.509070000000     0.189506   
C126     C      0.695890000000     0.245460000000     0.490930000000    -0.0354575  
C127     C      0.674080000000     0.174060000000     0.485540000000     0.0502851  
C128     C      0.796770000000     0.295970000000     0.485980000000     0.0690996  
C129     C      0.685380000000     0.835060000000     0.493130000000    -0.128205   
C130     C      0.815780000000     0.604630000000     0.487880000000     0.0720269  
C131     C      0.865130000000     0.654490000000     0.491250000000     0.0722458  
C132     C      0.785990000000     0.633350000000     0.487450000000    -0.0918656  
C133     C      0.728500000000     0.699120000000     0.508430000000    -0.0353839  
C134     C      0.699150000000     0.728370000000     0.507730000000    -0.0314226  
C135     C      0.764520000000     0.704660000000     0.488140000000    -0.00484113 
C136     C      0.836060000000     0.683960000000     0.491080000000    -0.0921211  
C137     C      0.705240000000     0.763930000000     0.486950000000    -0.0113974  
C138     C      0.634630000000     0.786600000000     0.482010000000    -0.101038   
C139     C      0.741120000000     0.769430000000     0.466510000000    -0.0313366  
C140     C      0.606430000000     0.816860000000     0.482290000000     0.0802435  
C141     C      0.656620000000     0.864970000000     0.493800000000     0.188992   
C142     C      0.770350000000     0.740120000000     0.467000000000    -0.0350125  
C143     C      0.795880000000     0.673630000000     0.488960000000     0.0497321  
C144     C      0.674650000000     0.795570000000     0.487160000000     0.0697441  
C145     C      0.284960000000     0.135050000000     0.478030000000    -0.129174   
C146     C      0.155130000000     0.365720000000     0.483600000000     0.0735006  
C147     C      0.105760000000     0.315800000000     0.481470000000     0.0730529  
C148     C      0.184940000000     0.337020000000     0.483870000000    -0.0891675  
C149     C      0.241610000000     0.270910000000     0.461480000000    -0.0358138  
C150     C      0.270870000000     0.241580000000     0.461510000000    -0.0308178  
C151     C      0.206360000000     0.265760000000     0.483170000000    -0.00400119 
C152     C      0.134840000000     0.286350000000     0.481570000000    -0.09158    
C153     C      0.265460000000     0.206370000000     0.483080000000    -0.0121684  
C154     C      0.336180000000     0.183710000000     0.485520000000    -0.103005   
C155     C      0.230370000000     0.201310000000     0.504960000000    -0.0309099  
C156     C      0.364290000000     0.153400000000     0.485040000000     0.0783841  
C157     C      0.313620000000     0.105050000000     0.477280000000     0.187263   
C158     C      0.201210000000     0.230680000000     0.505060000000    -0.0352436  
C159     C      0.175020000000     0.296750000000     0.482850000000     0.0498397  
C160     C      0.295970000000     0.174680000000     0.482320000000     0.0696648  
C161     C      0.286530000000     0.833430000000     0.487660000000    -0.128524   
C162     C      0.155530000000     0.603820000000     0.480250000000     0.0735195  
C163     C      0.106650000000     0.654090000000     0.484540000000     0.072726   
C164     C      0.185550000000     0.632270000000     0.479510000000    -0.0905203  
C165     C      0.202340000000     0.738770000000     0.459690000000    -0.035214   
C166     C      0.231710000000     0.767940000000     0.459760000000    -0.0313565  
C167     C      0.207660000000     0.703280000000     0.480860000000    -0.00445661 
C168     C      0.135980000000     0.683310000000     0.483970000000    -0.0918893  
C169     C      0.267170000000     0.762270000000     0.480900000000    -0.0112231  
C170     C      0.337880000000     0.785200000000     0.478400000000    -0.0994389  
C171     C      0.272800000000     0.726590000000     0.501610000000    -0.0309074  
C172     C      0.365900000000     0.815610000000     0.479550000000     0.0819333  
C173     C      0.315080000000     0.863490000000     0.489120000000     0.18848    
C174     C      0.243340000000     0.697450000000     0.501660000000    -0.0352084  
C175     C      0.176030000000     0.672590000000     0.481410000000     0.0500194  
C176     C      0.297650000000     0.793990000000     0.482120000000     0.0698485  
C177     C      0.678010000000     0.461820000000     0.141360000000    -0.12952    
C178     C      0.814550000000     0.475720000000     0.367520000000     0.0723383  
C179     C      0.861140000000     0.498440000000     0.320190000000     0.0723977  
C180     C      0.784830000000     0.474980000000     0.338650000000    -0.0905743  
C181     C      0.772170000000     0.480820000000     0.228090000000    -0.0350204  
C182     C      0.743270000000     0.480810000000     0.198510000000    -0.030551   
C183     C      0.761890000000     0.486380000000     0.268150000000    -0.00387174 
C184     C      0.831880000000     0.499460000000     0.291020000000    -0.0916868  
C185     C      0.702850000000     0.484860000000     0.208000000000    -0.0109039  
C186     C      0.635850000000     0.503810000000     0.180420000000    -0.101252   
C187     C      0.692440000000     0.489870000000     0.248120000000    -0.0308599  
C188     C      0.607290000000     0.501860000000     0.150570000000     0.0821339  
C189     C      0.649440000000     0.461420000000     0.111300000000     0.190163   
C190     C      0.721530000000     0.491220000000     0.277630000000    -0.0355101  
C191     C      0.793120000000     0.487040000000     0.299660000000     0.0491665  
C192     C      0.671910000000     0.483620000000     0.176230000000     0.0694432  
C193     C      0.332580000000     0.484000000000     0.183710000000    -0.130186   
C194     C      0.101650000000     0.490350000000     0.312850000000     0.0722455  
C195     C      0.152160000000     0.487640000000     0.361610000000     0.0723265  
C196     C      0.130050000000     0.491150000000     0.282730000000    -0.0923735  
C197     C      0.236250000000     0.512690000000     0.265790000000    -0.0357467  
C198     C      0.265800000000     0.512200000000     0.236830000000    -0.0311002  
C199     C      0.201200000000     0.490730000000     0.260680000000    -0.0047639  
C200     C      0.181270000000     0.488340000000     0.332250000000    -0.0917548  
C201     C      0.260990000000     0.489860000000     0.202010000000    -0.0125818  
C202     C      0.284740000000     0.490580000000     0.131610000000    -0.10313    
C203     C      0.225670000000     0.468460000000     0.196520000000    -0.0312354  
C204     C      0.315470000000     0.489210000000     0.103980000000     0.0781789  
C205     C      0.363020000000     0.482400000000     0.155550000000     0.188315   
C206     C      0.196120000000     0.468840000000     0.225570000000    -0.0361114  
C207     C      0.170440000000     0.490150000000     0.292230000000     0.049695   
C208     C      0.293130000000     0.488260000000     0.172000000000     0.0695957  
C209     C      0.187940000000     0.479950000000     0.632580000000    -0.129699   
C210     C      0.315980000000     0.488790000000     0.864510000000     0.0726964  
C211     C      0.365940000000     0.486430000000     0.815150000000     0.0727387  
C212     C      0.286520000000     0.488370000000     0.835450000000    -0.0927338  
C213     C      0.232500000000     0.510070000000     0.766470000000    -0.0358794  
C214     C      0.203580000000     0.509130000000     0.736830000000    -0.0312333  
C215     C      0.266070000000     0.485540000000     0.764040000000    -0.00505556 
C216     C      0.337220000000     0.485810000000     0.785370000000    -0.0928218  
C217     C      0.207540000000     0.483560000000     0.704150000000    -0.0121319  
C218     C      0.136770000000     0.484880000000     0.681600000000    -0.102171   
C219     C      0.241030000000     0.458850000000     0.701900000000    -0.0312612  
C220     C      0.108560000000     0.484320000000     0.651430000000     0.0781812  
C221     C      0.159160000000     0.479260000000     0.602650000000     0.18822    
C222     C      0.269980000000     0.459880000000     0.731470000000    -0.035703   
C223     C      0.296970000000     0.486660000000     0.795340000000     0.0502152  
C224     C      0.177010000000     0.482830000000     0.672400000000     0.0693079  
C225     C      0.837570000000     0.479860000000     0.687370000000    -0.128712   
C226     C      0.605690000000     0.486190000000     0.815840000000     0.0723755  
C227     C      0.655070000000     0.481310000000     0.865540000000     0.0724229  
C228     C      0.634720000000     0.486850000000     0.786320000000    -0.0921939  
C229     C      0.700870000000     0.465720000000     0.729230000000    -0.0351823  
C230     C      0.730500000000     0.466300000000     0.700270000000    -0.0312025  
C231     C      0.706290000000     0.485480000000     0.765550000000    -0.00482024 
C232     C      0.684820000000     0.481690000000     0.836770000000    -0.0918428  
C233     C      0.766310000000     0.486460000000     0.707020000000    -0.0113403  
C234     C      0.789340000000     0.492180000000     0.636680000000    -0.0996223  
C235     C      0.771730000000     0.506320000000     0.743220000000    -0.0314044  
C236     C      0.819590000000     0.491660000000     0.608530000000     0.0875099  
C237     C      0.867530000000     0.478990000000     0.658600000000     0.190998   
C238     C      0.742030000000     0.505950000000     0.772090000000    -0.0352411  
C239     C      0.674900000000     0.484650000000     0.796560000000     0.0498656  
C240     C      0.798140000000     0.486350000000     0.676620000000     0.0710564  
C241     C      0.637940000000     0.682700000000     0.992520000000    -0.129063   
C242     C      0.867180000000     0.814480000000     0.986470000000     0.0767617  
C243     C      0.816570000000     0.863140000000     0.988970000000     0.0763319  
C244     C      0.838950000000     0.784250000000     0.987020000000    -0.0856801  
C245     C      0.771610000000     0.728200000000     0.965300000000    -0.0351295  
C246     C      0.742600000000     0.698590000000     0.965890000000    -0.0295763  
C247     C      0.768180000000     0.761740000000     0.989820000000    -0.00355286 
C248     C      0.787560000000     0.833590000000     0.989730000000    -0.087518   
C249     C      0.709550000000     0.701840000000     0.991060000000    -0.0131172  
C250     C      0.686440000000     0.631030000000     0.987860000000    -0.101771   
C251     C      0.706540000000     0.735080000000     0.016050000000    -0.0282377  
C252     C      0.655840000000     0.603130000000     0.987310000000     0.0779783  
C253     C      0.607680000000     0.654350000000     0.992050000000     0.186485   
C254     C      0.735440000000     0.764700000000     0.015370000000    -0.0334569  
C255     C      0.798590000000     0.793580000000     0.988780000000     0.0506614  
C256     C      0.677670000000     0.671380000000     0.990510000000     0.0697874  
C257     C      0.633870000000     0.283530000000     0.987900000000    -0.12864    
C258     C      0.865420000000     0.154370000000     0.980480000000     0.0751324  
C259     C      0.815800000000     0.104900000000     0.985500000000     0.0744885  
C260     C      0.836550000000     0.184060000000     0.980310000000    -0.088963   
C261     C      0.733160000000     0.202620000000     0.009670000000    -0.0329431  
C262     C      0.703660000000     0.231670000000     0.009770000000    -0.0278841  
C263     C      0.765280000000     0.205120000000     0.983280000000    -0.00460952 
C264     C      0.786220000000     0.133850000000     0.985640000000    -0.090285   
C265     C      0.705420000000     0.263860000000     0.983310000000    -0.012186   
C266     C      0.682400000000     0.334460000000     0.978190000000    -0.0990921  
C267     C      0.737710000000     0.266470000000     0.957050000000    -0.0298599  
C268     C      0.652090000000     0.362600000000     0.978510000000     0.0868977  
C269     C      0.603870000000     0.312230000000     0.988440000000     0.190919   
C270     C      0.767340000000     0.237470000000     0.957100000000    -0.0349389  
C271     C      0.796410000000     0.173980000000     0.983030000000     0.0510028  
C272     C      0.673540000000     0.294360000000     0.983020000000     0.0717283  
C273     C      0.336490000000     0.686610000000     0.980700000000    -0.128953   
C274     C      0.105080000000     0.815500000000     0.989960000000     0.0747631  
C275     C      0.154740000000     0.865130000000     0.987120000000     0.0751073  
C276     C      0.133960000000     0.785850000000     0.989620000000    -0.0879156  
C277     C      0.202850000000     0.731610000000     0.011390000000    -0.0344467  
C278     C      0.232400000000     0.702580000000     0.010540000000    -0.0284602  
C279     C      0.205240000000     0.764950000000     0.986540000000    -0.00387861 
C280     C      0.184330000000     0.836230000000     0.986520000000    -0.0875698  
C281     C      0.264930000000     0.706190000000     0.984720000000    -0.0135502  
C282     C      0.287620000000     0.635440000000     0.986940000000    -0.103191   
C283     C      0.267070000000     0.739400000000     0.959620000000    -0.0293218  
C284     C      0.317850000000     0.607270000000     0.986410000000     0.0782563  
C285     C      0.366450000000     0.657880000000     0.980010000000     0.186897   
C286     C      0.237620000000     0.768470000000     0.960580000000    -0.0351158  
C287     C      0.174120000000     0.796040000000     0.987650000000     0.0503401  
C288     C      0.296710000000     0.675670000000     0.984170000000     0.0700554  
C289     C      0.184200000000     0.136680000000     0.987290000000    -0.12801    
C290     C      0.313380000000     0.367920000000     0.983960000000     0.0724859  
C291     C      0.362330000000     0.317620000000     0.986950000000     0.0728358  
C292     C      0.283330000000     0.339420000000     0.983900000000    -0.0927052  
C293     C      0.264310000000     0.235640000000     0.011510000000    -0.0335179  
C294     C      0.235270000000     0.206160000000     0.011230000000    -0.0289889  
C295     C      0.261520000000     0.268340000000     0.985890000000    -0.00607194 
C296     C      0.333020000000     0.288410000000     0.987180000000    -0.0918466  
C297     C      0.202820000000     0.208520000000     0.985160000000    -0.0126573  
C298     C      0.132420000000     0.184740000000     0.980030000000    -0.100704   
C299     C      0.199760000000     0.241510000000     0.959870000000    -0.0306707  
C300     C      0.104730000000     0.154010000000     0.979600000000     0.079623   
C301     C      0.155980000000     0.106250000000     0.987040000000     0.187892   
C302     C      0.228760000000     0.271130000000     0.960280000000    -0.0354927  
C303     C      0.292970000000     0.299130000000     0.985640000000     0.0504946  
C304     C      0.172710000000     0.176300000000     0.984040000000     0.0698361  
C305     C      0.784900000000     0.974540000000     0.835630000000    -0.129976   
C306     C      0.652890000000     0.988110000000     0.606650000000     0.0759811  
C307     C      0.603510000000     0.983030000000     0.656340000000     0.0756094  
C308     C      0.682650000000     0.987930000000     0.635350000000    -0.087962   
C309     C      0.699060000000     0.004230000000     0.742600000000    -0.0336319  
C310     C      0.728660000000     0.003470000000     0.771570000000    -0.0280471  
C311     C      0.704340000000     0.984310000000     0.706380000000    -0.00408325 
C312     C      0.632620000000     0.982610000000     0.685850000000    -0.0880267  
C313     C      0.764300000000     0.982920000000     0.764960000000    -0.0133869  
C314     C      0.835320000000     0.986150000000     0.786910000000    -0.100624   
C315     C      0.769760000000     0.963250000000     0.728680000000    -0.0295123  
C316     C      0.863820000000     0.984940000000     0.816890000000     0.078599   
C317     C      0.813940000000     0.972990000000     0.865210000000     0.189577   
C318     C      0.740080000000     0.963820000000     0.699780000000    -0.0354955  
C319     C      0.672800000000     0.984980000000     0.675530000000     0.0505588  
C320     C      0.795290000000     0.981400000000     0.796190000000     0.070411   
C321     C      0.183550000000     0.975690000000     0.832730000000    -0.127452   
C322     C      0.313230000000     0.984420000000     0.601510000000     0.0757064  
C323     C      0.361990000000     0.980230000000     0.651910000000     0.0750509  
C324     C      0.283070000000     0.983890000000     0.629920000000    -0.0869089  
C325     C      0.263670000000     0.953850000000     0.733040000000    -0.0343801  
C326     C      0.234640000000     0.953570000000     0.762560000000    -0.0299227  
C327     C      0.261030000000     0.980270000000     0.700960000000    -0.00445536 
C328     C      0.332590000000     0.979350000000     0.681010000000    -0.0896398  
C329     C      0.202340000000     0.979890000000     0.760900000000    -0.0121502  
C330     C      0.131970000000     0.985260000000     0.784850000000    -0.0989071  
C331     C      0.199440000000     0.005990000000     0.728510000000    -0.0283635  
C332     C      0.104250000000     0.985380000000     0.815570000000     0.079015   
C333     C      0.155260000000     0.975560000000     0.863130000000     0.189011   
C334     C      0.228410000000     0.006110000000     0.698830000000    -0.0332038  
C335     C      0.292570000000     0.981180000000     0.670220000000     0.0508164  
C336     C      0.172210000000     0.980420000000     0.793180000000     0.0696636  
C337     C      0.336700000000     0.989580000000     0.283360000000    -0.126036   
C338     C      0.105120000000     0.987130000000     0.154610000000     0.0733478  
C339     C      0.154810000000     0.987570000000     0.104930000000     0.0742107  
C340     C      0.133990000000     0.987490000000     0.184260000000    -0.0920992  
C341     C      0.201830000000     0.964440000000     0.239070000000    -0.0347074  
C342     C      0.231350000000     0.964570000000     0.268140000000    -0.030411   
C343     C      0.205300000000     0.988520000000     0.205230000000    -0.00534001 
C344     C      0.184420000000     0.988110000000     0.133850000000    -0.0888273  
C345     C      0.264980000000     0.988850000000     0.264080000000    -0.0116173  
C346     C      0.287870000000     0.986650000000     0.334830000000    -0.0974207  
C347     C      0.268220000000     0.013210000000     0.230400000000    -0.0282073  
C348     C      0.318260000000     0.986150000000     0.362870000000     0.0804268  
C349     C      0.366820000000     0.989180000000     0.311930000000     0.186343   
C350     C      0.238770000000     0.012980000000     0.201290000000    -0.0327185  
C351     C      0.174190000000     0.988040000000     0.174070000000     0.0508293  
C352     C      0.296870000000     0.988380000000     0.294520000000     0.0696614  
C353     C      0.686920000000     0.993030000000     0.336950000000    -0.126523   
C354     C      0.815530000000     0.987270000000     0.105230000000     0.0735071  
C355     C      0.865180000000     0.991450000000     0.154780000000     0.0734387  
C356     C      0.785910000000     0.987540000000     0.134130000000    -0.0919754  
C357     C      0.767800000000     0.016060000000     0.237830000000    -0.0328421  
C358     C      0.738830000000     0.015910000000     0.267400000000    -0.0290743  
C359     C      0.765070000000     0.990060000000     0.205420000000    -0.00627052 
C360     C      0.836290000000     0.992010000000     0.184400000000    -0.0928441  
C361     C      0.706550000000     0.989600000000     0.265350000000    -0.0111211  
C362     C      0.635970000000     0.984740000000     0.288130000000    -0.0949293  
C363     C      0.703750000000     0.963720000000     0.232800000000    -0.0303833  
C364     C      0.607830000000     0.984370000000     0.318370000000     0.0828834  
C365     C      0.658180000000     0.992860000000     0.366920000000     0.188024   
C366     C      0.732660000000     0.964000000000     0.203130000000    -0.0340813  
C367     C      0.796120000000     0.989920000000     0.174250000000     0.0512776  
C368     C      0.676080000000     0.989020000000     0.297190000000     0.0698061  
C369     C      0.988590000000     0.131100000000     0.781440000000    -0.129679   
C370     C      0.988900000000     0.363000000000     0.652860000000     0.0755023  
C371     C      0.988420000000     0.313830000000     0.602710000000     0.0744545  
C372     C      0.988890000000     0.333850000000     0.682220000000    -0.0888828  
C373     C      0.011360000000     0.266270000000     0.737150000000    -0.0341294  
C374     C      0.010990000000     0.236790000000     0.766260000000    -0.0292145  
C375     C      0.988330000000     0.262310000000     0.702620000000    -0.00506649 
C376     C      0.988450000000     0.283920000000     0.631350000000    -0.091315   
C377     C      0.987650000000     0.202610000000     0.761480000000    -0.0133508  
C378     C      0.986530000000     0.180500000000     0.832420000000    -0.102287   
C379     C      0.964590000000     0.198660000000     0.726990000000    -0.0304882  
C380     C      0.986300000000     0.150440000000     0.860800000000     0.0782138  
C381     C      0.988510000000     0.101290000000     0.810370000000     0.188093   
C382     C      0.964910000000     0.228160000000     0.697920000000    -0.0349429  
C383     C      0.988610000000     0.293720000000     0.671690000000     0.0508266  
C384     C      0.987540000000     0.171030000000     0.792200000000     0.0698218  
C385     C      0.982310000000     0.781190000000     0.839340000000    -0.12883    
C386     C      0.986270000000     0.602450000000     0.656750000000     0.0731074  
C387     C      0.986680000000     0.652740000000     0.607680000000     0.0730732  
C388     C      0.985860000000     0.630990000000     0.686710000000    -0.0911062  
C389     C      0.009500000000     0.735980000000     0.705120000000    -0.0343356  
C390     C      0.008930000000     0.765050000000     0.734580000000    -0.029499   
C391     C      0.985470000000     0.702110000000     0.708350000000    -0.00590084 
C392     C      0.986440000000     0.682000000000     0.636890000000    -0.0927916  
C393     C      0.984260000000     0.760940000000     0.767910000000    -0.0131524  
C394     C      0.984860000000     0.831930000000     0.789690000000    -0.101948   
C395     C      0.960180000000     0.727080000000     0.771080000000    -0.0304221  
C396     C      0.984600000000     0.860440000000     0.819580000000     0.0792574  
C397     C      0.981960000000     0.810250000000     0.868980000000     0.187235   
C398     C      0.960820000000     0.697960000000     0.741660000000    -0.0351942  
C399     C      0.985960000000     0.671310000000     0.676950000000     0.0505169  
C400     C      0.983810000000     0.791770000000     0.799360000000     0.0700166  
C401     C      0.981590000000     0.789140000000     0.140370000000    -0.129556   
C402     C      0.988390000000     0.657320000000     0.369150000000     0.0722089  
C403     C      0.984480000000     0.609130000000     0.318210000000     0.0720129  
C404     C      0.989500000000     0.687720000000     0.341090000000    -0.092939   
C405     C      0.968690000000     0.746570000000     0.276280000000    -0.0357553  
C406     C      0.968990000000     0.776160000000     0.247240000000    -0.0313285  
C407     C      0.989160000000     0.710710000000     0.270280000000    -0.00653131 
C408     C      0.985380000000     0.638830000000     0.289380000000    -0.092809   
C409     C      0.989580000000     0.770450000000     0.211500000000    -0.0136189  
C410     C      0.992120000000     0.840980000000     0.187810000000    -0.102952   
C411     C      0.010580000000     0.734940000000     0.205780000000    -0.0299416  
C412     C      0.990610000000     0.868660000000     0.157060000000     0.0781488  
C413     C      0.979710000000     0.817320000000     0.110020000000     0.186626   
C414     C      0.010440000000     0.705470000000     0.234830000000    -0.0339316  
C415     C      0.988020000000     0.678730000000     0.300620000000     0.0500069  
C416     C      0.988020000000     0.800670000000     0.179550000000     0.0695135  
C417     C      0.977590000000     0.188250000000     0.130970000000    -0.129752   
C418     C      0.982680000000     0.317700000000     0.362530000000     0.0715057  
C419     C      0.979430000000     0.367860000000     0.313490000000     0.0716928  
C420     C      0.982430000000     0.288370000000     0.333340000000    -0.0926592  
C421     C      0.959570000000     0.232360000000     0.266920000000    -0.0356813  
C422     C      0.959940000000     0.203140000000     0.237540000000    -0.0310534  
C423     C      0.980690000000     0.267950000000     0.261770000000    -0.00623451 
C424     C      0.979040000000     0.339240000000     0.283540000000    -0.0923299  
C425     C      0.981320000000     0.208840000000     0.202240000000    -0.0134934  
C426     C      0.985190000000     0.137880000000     0.180460000000    -0.102917   
C427     C      0.002370000000     0.244420000000     0.197030000000    -0.029765   
C428     C      0.985370000000     0.109300000000     0.150580000000     0.0782356  
C429     C      0.977530000000     0.159100000000     0.101370000000     0.188384   
C430     C      0.002110000000     0.273590000000     0.226450000000    -0.0340075  
C431     C      0.980640000000     0.298900000000     0.293230000000     0.0497156  
C432     C      0.981480000000     0.177910000000     0.170850000000     0.0696474  
H1       H      0.928530000000     0.929580000000     0.043590000000     0.214002   
H2       H      0.041680000000     0.043130000000     0.040220000000     0.213583   
H3       H      0.928160000000     0.039700000000     0.926780000000     0.212357   
H4       H      0.041800000000     0.926540000000     0.929830000000     0.215786   
H5       H      0.927560000000     0.542980000000     0.430920000000     0.210213   
H6       H      0.040760000000     0.429380000000     0.425970000000     0.210596   
H7       H      0.930300000000     0.427610000000     0.542450000000     0.218365   
H8       H      0.043800000000     0.540990000000     0.541530000000     0.212698   
H9       H      0.429960000000     0.928220000000     0.426610000000     0.214246   
H10      H      0.542620000000     0.042410000000     0.429850000000     0.217133   
H11      H      0.541090000000     0.928010000000     0.542460000000     0.214458   
H12      H      0.427280000000     0.041130000000     0.541060000000     0.211856   
H13      H      0.428870000000     0.542690000000     0.041920000000     0.214385   
H14      H      0.427640000000     0.429530000000     0.928100000000     0.210502   
H15      H      0.540600000000     0.427240000000     0.041830000000     0.218106   
H16      H      0.543000000000     0.541150000000     0.928880000000     0.211597   
H17      H      0.486110000000     0.306080000000     0.075080000000     0.0404084  
H18      H      0.471340000000     0.162190000000     0.395320000000     0.0244903  
H19      H      0.445740000000     0.223390000000     0.173440000000     0.0422635  
H20      H      0.515880000000     0.249800000000     0.299970000000     0.0390081  
H21      H      0.468650000000     0.213930000000     0.346060000000     0.0568198  
H22      H      0.515430000000     0.300480000000     0.248470000000     0.0411157  
H23      H      0.500400000000     0.129920000000     0.255910000000     0.085113   
H24      H      0.486180000000     0.255690000000     0.125980000000     0.0591536  
H25      H      0.474950000000     0.346840000000     0.215020000000     0.0578184  
H26      H      0.447310000000     0.172420000000     0.224630000000     0.0448055  
H27      H      0.476550000000     0.396530000000     0.163670000000     0.0412506  
H28      H      0.491880000000     0.663640000000     0.075010000000     0.0477095  
H29      H      0.482050000000     0.807950000000     0.394410000000     0.0273015  
H30      H      0.538380000000     0.737540000000     0.179370000000     0.0435182  
H31      H      0.443900000000     0.729820000000     0.291810000000     0.0391516  
H32      H      0.483020000000     0.756140000000     0.345620000000     0.0574331  
H33      H      0.443100000000     0.678360000000     0.241010000000     0.0414486  
H34      H      0.501250000000     0.842670000000     0.253970000000     0.0840017  
H35      H      0.493330000000     0.714310000000     0.125770000000     0.0616299  
H36      H      0.485600000000     0.623690000000     0.215540000000     0.0559683  
H37      H      0.539770000000     0.788620000000     0.230420000000     0.0426244  
H38      H      0.484030000000     0.573590000000     0.164260000000     0.0340037  
H39      H      0.481600000000     0.575440000000     0.806860000000     0.024851   
H40      H      0.490650000000     0.894690000000     0.661790000000     0.0281794  
H41      H      0.522610000000     0.674140000000     0.725120000000     0.0396852  
H42      H      0.447130000000     0.798300000000     0.747620000000     0.0405389  
H43      H      0.492090000000     0.845820000000     0.713680000000     0.0589869  
H44      H      0.447930000000     0.747460000000     0.799030000000     0.0431901  
H45      H      0.471690000000     0.754000000000     0.627960000000     0.0812968  
H46      H      0.480780000000     0.626070000000     0.756270000000     0.0536313  
H47      H      0.489890000000     0.715760000000     0.846950000000     0.0605635  
H48      H      0.521220000000     0.724730000000     0.673600000000     0.0407715  
H49      H      0.489570000000     0.664520000000     0.897010000000     0.0470925  
H50      H      0.486920000000     0.306460000000     0.895100000000     0.0346451  
H51      H      0.477820000000     0.162060000000     0.575230000000     0.0234449  
H52      H      0.444800000000     0.225850000000     0.795790000000     0.0410508  
H53      H      0.522020000000     0.246450000000     0.672360000000     0.0386033  
H54      H      0.476680000000     0.213860000000     0.624210000000     0.0560018  
H55      H      0.522340000000     0.297670000000     0.723380000000     0.0393612  
H56      H      0.493320000000     0.127530000000     0.716190000000     0.0823345  
H57      H      0.486970000000     0.255810000000     0.844460000000     0.0574067  
H58      H      0.481480000000     0.346670000000     0.754650000000     0.0526401  
H59      H      0.445050000000     0.174500000000     0.745000000000     0.0419749  
H60      H      0.482550000000     0.396700000000     0.805860000000     0.0243156  
H61      H      0.575930000000     0.161840000000     0.467370000000     0.0247313  
H62      H      0.888270000000     0.316320000000     0.449740000000     0.0232521  
H63      H      0.665710000000     0.254650000000     0.496660000000     0.0389008  
H64      H      0.805540000000     0.215190000000     0.475710000000     0.0378002  
H65      H      0.837740000000     0.266010000000     0.446390000000     0.0559397  
H66      H      0.754540000000     0.165160000000     0.472990000000     0.0416496  
H67      H      0.765740000000     0.334230000000     0.527050000000     0.0802307  
H68      H      0.626520000000     0.211960000000     0.464170000000     0.0531501  
H69      H      0.712050000000     0.126680000000     0.507140000000     0.057502   
H70      H      0.715940000000     0.305190000000     0.493750000000     0.0396182  
H71      H      0.661290000000     0.076560000000     0.506520000000     0.0375998  
H72      H      0.895770000000     0.664020000000     0.492900000000     0.0246288  
H73      H      0.575910000000     0.808020000000     0.477450000000     0.0309533  
H74      H      0.797360000000     0.745100000000     0.450390000000     0.0395394  
H75      H      0.672010000000     0.723500000000     0.524190000000     0.0396363  
H76      H      0.625080000000     0.756340000000     0.477130000000     0.058654   
H77      H      0.723200000000     0.672470000000     0.525510000000     0.0395109  
H78      H      0.716180000000     0.842590000000     0.498350000000     0.0824011  
H79      H      0.845130000000     0.714690000000     0.493000000000     0.0536037  
H80      H      0.755390000000     0.623910000000     0.485250000000     0.0537538  
H81      H      0.746430000000     0.796310000000     0.449770000000     0.0426087  
H82      H      0.806550000000     0.573890000000     0.486400000000     0.0267671  
H83      H      0.075100000000     0.306230000000     0.480390000000     0.0250492  
H84      H      0.394990000000     0.162380000000     0.488230000000     0.0233125  
H85      H      0.174780000000     0.226050000000     0.522690000000     0.0405539  
H86      H      0.297370000000     0.246110000000     0.443970000000     0.0388482  
H87      H      0.345970000000     0.214080000000     0.489080000000     0.0561608  
H88      H      0.246310000000     0.297300000000     0.443840000000     0.0400215  
H89      H      0.253960000000     0.127410000000     0.474440000000     0.0819915  
H90      H      0.125780000000     0.255590000000     0.480130000000     0.0539829  
H91      H      0.215580000000     0.346460000000     0.485430000000     0.0572669  
H92      H      0.225630000000     0.174750000000     0.522360000000     0.0414657  
H93      H      0.164370000000     0.396470000000     0.484580000000     0.0391566  
H94      H      0.076120000000     0.663870000000     0.486680000000     0.0246761  
H95      H      0.396610000000     0.806940000000     0.475770000000     0.0363389  
H96      H      0.248210000000     0.670710000000     0.518730000000     0.0413843  
H97      H      0.226770000000     0.794880000000     0.443020000000     0.0412614  
H98      H      0.347750000000     0.754980000000     0.473920000000     0.0602425  
H99      H      0.175570000000     0.743930000000     0.442740000000     0.039763   
H100     H      0.255550000000     0.840840000000     0.491850000000     0.0819711  
H101     H      0.127240000000     0.714120000000     0.486080000000     0.053762   
H102     H      0.216060000000     0.622600000000     0.476940000000     0.0560753  
H103     H      0.299590000000     0.721580000000     0.518580000000     0.0419633  
H104     H      0.164500000000     0.573010000000     0.478600000000     0.0336872  
H105     H      0.890600000000     0.508230000000     0.311860000000     0.0235506  
H106     H      0.580070000000     0.518420000000     0.155060000000     0.0267676  
H107     H      0.712080000000     0.496330000000     0.307840000000     0.0387787  
H108     H      0.752990000000     0.477800000000     0.168100000000     0.0406466  
H109     H      0.629640000000     0.521750000000     0.206260000000     0.0572144  
H110     H      0.802610000000     0.476060000000     0.219210000000     0.039357   
H111     H      0.704450000000     0.444050000000     0.137630000000     0.0810245  
H112     H      0.839900000000     0.510380000000     0.261960000000     0.0529075  
H113     H      0.755790000000     0.464270000000     0.347010000000     0.0540028  
H114     H      0.661770000000     0.492410000000     0.257110000000     0.0381483  
H115     H      0.806750000000     0.465950000000     0.397130000000     0.0288131  
H116     H      0.162120000000     0.486090000000     0.392120000000     0.0287306  
H117     H      0.306960000000     0.491710000000     0.073090000000     0.0238989  
H118     H      0.169700000000     0.451210000000     0.220910000000     0.0389557  
H119     H      0.292400000000     0.529550000000     0.241600000000     0.0406793  
H120     H      0.254540000000     0.494100000000     0.121260000000     0.0560024  
H121     H      0.240790000000     0.530480000000     0.292120000000     0.0401141  
H122     H      0.339740000000     0.481100000000     0.214900000000     0.0811324  
H123     H      0.212130000000     0.486880000000     0.340970000000     0.054859   
H124     H      0.120330000000     0.493040000000     0.252190000000     0.0530326  
H125     H      0.221290000000     0.450600000000     0.170200000000     0.0383584  
H126     H      0.070770000000     0.491310000000     0.304010000000     0.0247988  
H127     H      0.396710000000     0.485710000000     0.805910000000     0.0244117  
H128     H      0.077840000000     0.486220000000     0.660680000000     0.028223   
H129     H      0.295190000000     0.440140000000     0.729090000000     0.0394273  
H130     H      0.178440000000     0.528960000000     0.739180000000     0.0387379  
H131     H      0.126910000000     0.486530000000     0.712120000000     0.0575064  
H132     H      0.228900000000     0.530520000000     0.790950000000     0.0399787  
H133     H      0.219020000000     0.478540000000     0.624570000000     0.0806688  
H134     H      0.346600000000     0.485040000000     0.754680000000     0.0537864  
H135     H      0.255700000000     0.488700000000     0.844450000000     0.0533787  
H136     H      0.244650000000     0.438310000000     0.677510000000     0.040839   
H137     H      0.306400000000     0.489840000000     0.895160000000     0.024612   
H138     H      0.664330000000     0.478940000000     0.896220000000     0.0268063  
H139     H      0.810820000000     0.497050000000     0.578090000000     0.0351279  
H140     H      0.746960000000     0.522110000000     0.799370000000     0.0396463  
H141     H      0.725680000000     0.450280000000     0.672860000000     0.0421932  
H142     H      0.759180000000     0.497700000000     0.627130000000     0.059915   
H143     H      0.674010000000     0.449140000000     0.723400000000     0.0395466  
H144     H      0.845020000000     0.474390000000     0.718140000000     0.0816078  
H145     H      0.715430000000     0.479210000000     0.846100000000     0.0543708  
H146     H      0.625620000000     0.489710000000     0.755670000000     0.0529279  
H147     H      0.798800000000     0.522570000000     0.749050000000     0.040875   
H148     H      0.575040000000     0.488210000000     0.806380000000     0.0243914  
H149     H      0.806600000000     0.893660000000     0.989820000000     0.0398051  
H150     H      0.664610000000     0.572300000000     0.985130000000     0.0272082  
H151     H      0.732320000000     0.789780000000     0.035170000000     0.04197    
H152     H      0.745590000000     0.673640000000     0.945920000000     0.0390152  
H153     H      0.716870000000     0.620880000000     0.986640000000     0.0576523  
H154     H      0.796300000000     0.725250000000     0.944990000000     0.042939   
H155     H      0.630250000000     0.713850000000     0.994100000000     0.0822885  
H156     H      0.756620000000     0.842130000000     0.990630000000     0.0588469  
H157     H      0.848810000000     0.753700000000     0.986670000000     0.0612853  
H158     H      0.681870000000     0.738150000000     0.036370000000     0.042285   
H159     H      0.898050000000     0.805650000000     0.985210000000     0.0517832  
H160     H      0.806390000000     0.074240000000     0.987500000000     0.0324801  
H161     H      0.661010000000     0.393190000000     0.974350000000     0.0356608  
H162     H      0.791490000000     0.239990000000     0.936100000000     0.0409164  
H163     H      0.679670000000     0.229120000000     0.030940000000     0.0437757  
H164     H      0.712750000000     0.344330000000     0.974700000000     0.0610281  
H165     H      0.731070000000     0.178420000000     0.030660000000     0.0428036  
H166     H      0.626040000000     0.252560000000     0.991250000000     0.0820577  
H167     H      0.755480000000     0.124740000000     0.987320000000     0.0571422  
H168     H      0.845740000000     0.214770000000     0.978630000000     0.0581665  
H169     H      0.739750000000     0.290540000000     0.935930000000     0.0392815  
H170     H      0.896110000000     0.163700000000     0.978480000000     0.03837    
H171     H      0.164160000000     0.895830000000     0.986240000000     0.043146   
H172     H      0.308720000000     0.576560000000     0.988890000000     0.0233464  
H173     H      0.239950000000     0.793480000000     0.940590000000     0.0437325  
H174     H      0.230120000000     0.677670000000     0.030650000000     0.0386089  
H175     H      0.257150000000     0.625540000000     0.989100000000     0.0559459  
H176     H      0.178500000000     0.728300000000     0.032050000000     0.0417479  
H177     H      0.344430000000     0.717670000000     0.978760000000     0.0825737  
H178     H      0.215090000000     0.845400000000     0.985550000000     0.0601434  
H179     H      0.124780000000     0.755090000000     0.990190000000     0.0586484  
H180     H      0.291310000000     0.742750000000     0.938850000000     0.0422947  
H181     H      0.074370000000     0.806110000000     0.991170000000     0.0424463  
H182     H      0.392900000000     0.307780000000     0.988070000000     0.0294428  
H183     H      0.073930000000     0.162620000000     0.976390000000     0.0322957  
H184     H      0.226000000000     0.295780000000     0.939900000000     0.0393217  
H185     H      0.238140000000     0.181610000000     0.031710000000     0.0422793  
H186     H      0.122100000000     0.215050000000     0.977810000000     0.0585858  
H187     H      0.288810000000     0.233000000000     0.032080000000     0.0416597  
H188     H      0.215330000000     0.129210000000     0.989920000000     0.0828303  
H189     H      0.341800000000     0.257540000000     0.988060000000     0.0561354  
H190     H      0.252690000000     0.348990000000     0.983060000000     0.0532603  
H191     H      0.175410000000     0.244030000000     0.939100000000     0.0389495  
H192     H      0.304410000000     0.398750000000     0.982750000000     0.024361   
H193     H      0.572870000000     0.980850000000     0.665750000000     0.0383133  
H194     H      0.894310000000     0.989730000000     0.807940000000     0.0344535  
H195     H      0.744920000000     0.947610000000     0.672510000000     0.0428809  
H196     H      0.723810000000     0.019360000000     0.799050000000     0.0424759  
H197     H      0.844630000000     0.991580000000     0.756660000000     0.0599802  
H198     H      0.672250000000     0.020880000000     0.748430000000     0.0434755  
H199     H      0.754140000000     0.969350000000     0.843360000000     0.0823111  
H200     H      0.623590000000     0.979800000000     0.716520000000     0.0579877  
H201     H      0.713240000000     0.990560000000     0.625960000000     0.0586114  
H202     H      0.796660000000     0.946690000000     0.722950000000     0.040338   
H203     H      0.662190000000     0.990540000000     0.575990000000     0.0415945  
H204     H      0.392520000000     0.978820000000     0.661830000000     0.0330191  
H205     H      0.073530000000     0.989570000000     0.807100000000     0.0392107  
H206     H      0.225760000000     0.027100000000     0.674680000000     0.0423505  
H207     H      0.237410000000     0.932460000000     0.786580000000     0.0420948  
H208     H      0.121690000000     0.988510000000     0.754610000000     0.0605329  
H209     H      0.288070000000     0.933090000000     0.735170000000     0.0422404  
H210     H      0.214580000000     0.972060000000     0.840170000000     0.0830057  
H211     H      0.341260000000     0.977740000000     0.711890000000     0.0573141  
H212     H      0.252460000000     0.985050000000     0.620290000000     0.0602994  
H213     H      0.175240000000     0.026980000000     0.726500000000     0.0415067  
H214     H      0.304390000000     0.986440000000     0.570680000000     0.0471824  
H215     H      0.164230000000     0.987510000000     0.074210000000     0.0417698  
H216     H      0.309160000000     0.984750000000     0.393660000000     0.0450174  
H217     H      0.242000000000     0.032360000000     0.175900000000     0.0434561  
H218     H      0.228190000000     0.945050000000     0.293420000000     0.0403996  
H219     H      0.257390000000     0.986150000000     0.344900000000     0.0626212  
H220     H      0.176630000000     0.944890000000     0.242720000000     0.0402377  
H221     H      0.344550000000     0.990400000000     0.252220000000     0.0835809  
H222     H      0.215190000000     0.988060000000     0.124670000000     0.0599095  
H223     H      0.124770000000     0.987870000000     0.215010000000     0.0537973  
H224     H      0.293380000000     0.032800000000     0.226680000000     0.0439743  
H225     H      0.074400000000     0.986840000000     0.164030000000     0.0245622  
H226     H      0.895880000000     0.992940000000     0.164140000000     0.0247557  
H227     H      0.577240000000     0.980790000000     0.309280000000     0.055876   
H228     H      0.730020000000     0.943250000000     0.178770000000     0.0412438  
H229     H      0.741510000000     0.036760000000     0.291660000000     0.0422581  
H230     H      0.626120000000     0.982140000000     0.257690000000     0.0667598  
H231     H      0.792110000000     0.036910000000     0.240090000000     0.0405656  
H232     H      0.717890000000     0.996210000000     0.344860000000     0.0812671  
H233     H      0.845480000000     0.993470000000     0.215130000000     0.0537645  
H234     H      0.755150000000     0.986320000000     0.125000000000     0.0565531  
H235     H      0.679590000000     0.942710000000     0.230590000000     0.0425135  
H236     H      0.806120000000     0.985450000000     0.074550000000     0.0293848  
H237     H      0.988350000000     0.304730000000     0.571890000000     0.0257261  
H238     H      0.985170000000     0.159890000000     0.891490000000     0.0279252  
H239     H      0.946300000000     0.224470000000     0.672030000000     0.0410731  
H240     H      0.029520000000     0.240450000000     0.792210000000     0.0392218  
H241     H      0.985320000000     0.211090000000     0.842090000000     0.0575394  
H242     H      0.030190000000     0.291900000000     0.741450000000     0.0405315  
H243     H      0.990160000000     0.122980000000     0.750400000000     0.0811917  
H244     H      0.988800000000     0.253270000000     0.621820000000     0.0542286  
H245     H      0.988500000000     0.342840000000     0.713040000000     0.057899   
H246     H      0.945830000000     0.172970000000     0.722690000000     0.0413294  
H247     H      0.988950000000     0.393620000000     0.662590000000     0.0393968  
H248     H      0.986880000000     0.662550000000     0.577080000000     0.0244025  
H249     H      0.985550000000     0.891080000000     0.809980000000     0.0289824  
H250     H      0.941520000000     0.672490000000     0.744690000000     0.0413389  
H251     H      0.028300000000     0.790470000000     0.731550000000     0.039364   
H252     H      0.985460000000     0.841500000000     0.759050000000     0.058018   
H253     H      0.029220000000     0.739760000000     0.680070000000     0.0399613  
H254     H      0.981840000000     0.750170000000     0.847660000000     0.0814307  
H255     H      0.986050000000     0.712860000000     0.628040000000     0.0536046  
H256     H      0.985940000000     0.621460000000     0.717370000000     0.05623    
H257     H      0.940360000000     0.723310000000     0.796050000000     0.0417033  
H258     H      0.986250000000     0.571610000000     0.665770000000     0.0329919  
H259     H      0.982360000000     0.578740000000     0.308000000000     0.0239681  
H260     H      0.994780000000     0.899460000000     0.165210000000     0.0237465  
H261     H      0.027220000000     0.678610000000     0.229560000000     0.039738   
H262     H      0.952170000000     0.803030000000     0.252300000000     0.0382467  
H263     H      0.997170000000     0.851140000000     0.217850000000     0.0558422  
H264     H      0.951590000000     0.751430000000     0.303000000000     0.0387204  
H265     H      0.976970000000     0.758120000000     0.133420000000     0.081703   
H266     H      0.983510000000     0.630470000000     0.258450000000     0.0532577  
H267     H      0.992080000000     0.718080000000     0.351180000000     0.0528086  
H268     H      0.027230000000     0.729950000000     0.178780000000     0.04148    
H269     H      0.989820000000     0.665870000000     0.400100000000     0.0244219  
H270     H      0.978100000000     0.398670000000     0.304470000000     0.0246575  
H271     H      0.988880000000     0.078810000000     0.160070000000     0.0239213  
H272     H      0.019260000000     0.300310000000     0.221760000000     0.0394071  
H273     H      0.942930000000     0.176320000000     0.242210000000     0.0383891  
H274     H      0.988590000000     0.128560000000     0.211000000000     0.0561363  
H275     H      0.942230000000     0.227270000000     0.293440000000     0.0389861  
H276     H      0.973690000000     0.219070000000     0.122810000000     0.081185   
H277     H      0.977050000000     0.348790000000     0.252950000000     0.0533486  
H278     H      0.984270000000     0.257590000000     0.342270000000     0.0528465  
H279     H      0.019580000000     0.249480000000     0.170410000000     0.0409841  
H280     H      0.984290000000     0.307940000000     0.393100000000     0.024211   
N1       N      0.487020000000     0.115460000000     0.354690000000    -0.203809   
N2       N      0.481500000000     0.355220000000     0.115360000000    -0.188742   
N3       N      0.491500000000     0.855970000000     0.353290000000    -0.203609   
N4       N      0.487890000000     0.614690000000     0.115650000000    -0.189076   
N5       N      0.480900000000     0.853340000000     0.614040000000    -0.204441   
N6       N      0.485630000000     0.615980000000     0.855870000000    -0.189876   
N7       N      0.485810000000     0.114010000000     0.616620000000    -0.204716   
N8       N      0.484700000000     0.355520000000     0.854480000000    -0.191233   
N9       N      0.855510000000     0.355260000000     0.487900000000    -0.207655   
N10      N      0.614750000000     0.115400000000     0.487070000000    -0.190973   
N11      N      0.616880000000     0.855990000000     0.487720000000    -0.203324   
N12      N      0.855170000000     0.615020000000     0.489530000000    -0.192042   
N13      N      0.353600000000     0.114120000000     0.481360000000    -0.204587   
N14      N      0.115740000000     0.355280000000     0.482510000000    -0.190948   
N15      N      0.355050000000     0.854710000000     0.484410000000    -0.203088   
N16      N      0.116270000000     0.614550000000     0.482750000000    -0.191456   
N17      N      0.614220000000     0.481740000000     0.115880000000    -0.207017   
N18      N      0.852590000000     0.486800000000     0.358240000000    -0.192649   
N19      N      0.354580000000     0.485520000000     0.115350000000    -0.204937   
N20      N      0.112540000000     0.488590000000     0.352090000000    -0.192109   
N21      N      0.119130000000     0.481880000000     0.612010000000    -0.204652   
N22      N      0.355490000000     0.487680000000     0.854520000000    -0.19249    
N23      N      0.858600000000     0.485150000000     0.618870000000    -0.202374   
N24      N      0.615700000000     0.483630000000     0.855260000000    -0.192051   
N25      N      0.616540000000     0.614200000000     0.989170000000    -0.204036   
N26      N      0.856190000000     0.853740000000     0.987470000000    -0.187644   
N27      N      0.612920000000     0.352120000000     0.983680000000    -0.202375   
N28      N      0.855220000000     0.114990000000     0.983060000000    -0.189845   
N29      N      0.357210000000     0.617880000000     0.983280000000    -0.204634   
N30      N      0.115310000000     0.854930000000     0.988550000000    -0.188701   
N31      N      0.115880000000     0.114840000000     0.983080000000    -0.203023   
N32      N      0.352680000000     0.357180000000     0.985430000000    -0.191891   
N33      N      0.853600000000     0.979120000000     0.856020000000    -0.204155   
N34      N      0.613530000000     0.985580000000     0.616940000000    -0.188916   
N35      N      0.115330000000     0.980880000000     0.854660000000    -0.20238    
N36      N      0.352500000000     0.982620000000     0.612340000000    -0.188642   
N37      N      0.357680000000     0.987310000000     0.352050000000    -0.201064   
N38      N      0.115350000000     0.987130000000     0.115140000000    -0.190576   
N39      N      0.618330000000     0.988090000000     0.357700000000    -0.20071    
N40      N      0.854960000000     0.989050000000     0.115390000000    -0.192      
N41      N      0.987120000000     0.110900000000     0.850420000000    -0.20424    
N42      N      0.988540000000     0.353170000000     0.613300000000    -0.190372   
N43      N      0.983380000000     0.850240000000     0.859150000000    -0.203985   
N44      N      0.986610000000     0.613170000000     0.617430000000    -0.191886   
N45      N      0.985000000000     0.857340000000     0.118200000000    -0.20463    
N46      N      0.985990000000     0.618220000000     0.357890000000    -0.192488   
N47      N      0.981890000000     0.119310000000     0.111090000000    -0.204363   
N48      N      0.981330000000     0.357260000000     0.352800000000    -0.192197   
O1       O      0.983780000000     0.098730000000     0.046060000000    -0.353176   
O2       O      0.985810000000     0.874910000000     0.052510000000    -0.354626   
O3       O      0.920560000000     0.988680000000     0.097670000000    -0.375681   
O4       O      0.049770000000     0.987250000000     0.097490000000    -0.376297   
O5       O      0.097520000000     0.985980000000     0.049540000000    -0.363609   
O6       O      0.872710000000     0.986790000000     0.049870000000    -0.373248   
O7       O      0.985170000000     0.923070000000     0.099570000000    -0.374868   
O8       O      0.983690000000     0.052930000000     0.095440000000    -0.374712   
O9       O      0.025400000000     0.946010000000     0.026550000000    -0.509772   
O10      O      0.945310000000     0.025970000000     0.023980000000    -0.505367   
O11      O      0.945030000000     0.945740000000     0.026690000000    -0.657118   
O12      O      0.025200000000     0.026120000000     0.024150000000    -0.65283    
O13      O      0.984540000000     0.870940000000     0.924100000000    -0.353524   
O14      O      0.986400000000     0.094990000000     0.916760000000    -0.373651   
O15      O      0.873030000000     0.919720000000     0.986730000000    -0.362838   
O16      O      0.097560000000     0.920490000000     0.987010000000    -0.364386   
O17      O      0.097150000000     0.049290000000     0.983300000000    -0.350743   
O18      O      0.872920000000     0.049370000000     0.984630000000    -0.368919   
O19      O      0.919730000000     0.980440000000     0.872880000000    -0.368241   
O20      O      0.049480000000     0.981480000000     0.872420000000    -0.366391   
O21      O      0.872800000000     0.982050000000     0.921220000000    -0.356555   
O22      O      0.096880000000     0.983550000000     0.920280000000    -0.34823    
O23      O      0.921370000000     0.872400000000     0.987270000000    -0.359258   
O24      O      0.920770000000     0.097150000000     0.982060000000    -0.366603   
O25      O      0.049940000000     0.097230000000     0.982160000000    -0.369569   
O26      O      0.049750000000     0.872690000000     0.988630000000    -0.363678   
O27      O      0.983870000000     0.916620000000     0.874710000000    -0.373139   
O28      O      0.985620000000     0.045810000000     0.870820000000    -0.355276   
O29      O      0.025140000000     0.023570000000     0.943470000000    -0.50683    
O30      O      0.944900000000     0.943570000000     0.946290000000    -0.51013    
O31      O      0.944750000000     0.023680000000     0.943730000000    -0.653981   
O32      O      0.025320000000     0.943610000000     0.945830000000    -0.660193   
O33      O      0.983520000000     0.374070000000     0.418560000000    -0.376801   
O34      O      0.985730000000     0.598920000000     0.422950000000    -0.377363   
O35      O      0.918280000000     0.488700000000     0.374680000000    -0.378403   
O36      O      0.047300000000     0.487990000000     0.371120000000    -0.375555   
O37      O      0.096100000000     0.486620000000     0.417950000000    -0.374131   
O38      O      0.871530000000     0.483560000000     0.423410000000    -0.372851   
O39      O      0.984340000000     0.552150000000     0.374070000000    -0.374444   
O40      O      0.981700000000     0.422690000000     0.371510000000    -0.375316   
O41      O      0.024600000000     0.526020000000     0.444850000000    -0.508521   
O42      O      0.944410000000     0.445860000000     0.445260000000    -0.50791    
O43      O      0.944420000000     0.526130000000     0.446760000000    -0.65343    
O44      O      0.024600000000     0.445600000000     0.443150000000    -0.653918   
O45      O      0.986300000000     0.596420000000     0.551660000000    -0.377644   
O46      O      0.987110000000     0.371740000000     0.547870000000    -0.373623   
O47      O      0.873140000000     0.549550000000     0.488490000000    -0.375746   
O48      O      0.097910000000     0.549250000000     0.482540000000    -0.370632   
O49      O      0.097750000000     0.420730000000     0.482680000000    -0.368386   
O50      O      0.873340000000     0.420610000000     0.489300000000    -0.358899   
O51      O      0.923870000000     0.484340000000     0.598990000000    -0.354193   
O52      O      0.052940000000     0.482530000000     0.595780000000    -0.374367   
O53      O      0.874980000000     0.485870000000     0.552730000000    -0.363737   
O54      O      0.099100000000     0.483540000000     0.546820000000    -0.355317   
O55      O      0.920900000000     0.597510000000     0.488850000000    -0.375188   
O56      O      0.920780000000     0.372730000000     0.483170000000    -0.375809   
O57      O      0.050030000000     0.372770000000     0.482640000000    -0.374818   
O58      O      0.050460000000     0.597410000000     0.485150000000    -0.373841   
O59      O      0.987320000000     0.547840000000     0.598720000000    -0.370918   
O60      O      0.988420000000     0.418920000000     0.596370000000    -0.366712   
O61      O      0.026420000000     0.444310000000     0.523540000000    -0.508542   
O62      O      0.946450000000     0.524650000000     0.526940000000    -0.509105   
O63      O      0.946390000000     0.444310000000     0.525680000000    -0.656197   
O64      O      0.026830000000     0.524800000000     0.525140000000    -0.655955   
O65      O      0.598530000000     0.986350000000     0.422940000000    -0.350982   
O66      O      0.374350000000     0.985840000000     0.418170000000    -0.362507   
O67      O      0.489160000000     0.921350000000     0.372420000000    -0.349765   
O68      O      0.486830000000     0.049980000000     0.373170000000    -0.346309   
O69      O      0.485330000000     0.097890000000     0.420570000000    -0.373402   
O70      O      0.488600000000     0.872970000000     0.419260000000    -0.374465   
O71      O      0.423050000000     0.986310000000     0.371740000000    -0.347806   
O72      O      0.552190000000     0.986470000000     0.374120000000    -0.35667    
O73      O      0.445800000000     0.025300000000     0.444250000000    -0.509868   
O74      O      0.526480000000     0.945200000000     0.445370000000    -0.512337   
O75      O      0.446090000000     0.944650000000     0.443600000000    -0.660376   
O76      O      0.525820000000     0.025800000000     0.445980000000    -0.660266   
O77      O      0.371570000000     0.983910000000     0.547090000000    -0.359608   
O78      O      0.596120000000     0.986100000000     0.551430000000    -0.366128   
O79      O      0.421040000000     0.872140000000     0.484010000000    -0.365566   
O80      O      0.419680000000     0.097220000000     0.483390000000    -0.377451   
O81      O      0.549230000000     0.097790000000     0.485040000000    -0.375528   
O82      O      0.550800000000     0.872870000000     0.485810000000    -0.369975   
O83      O      0.482100000000     0.919260000000     0.596780000000    -0.372496   
O84      O      0.484200000000     0.048620000000     0.597420000000    -0.354546   
O85      O      0.483550000000     0.872190000000     0.548580000000    -0.354292   
O86      O      0.485270000000     0.097010000000     0.550540000000    -0.376264   
O87      O      0.373810000000     0.920130000000     0.483440000000    -0.354473   
O88      O      0.597570000000     0.921330000000     0.486650000000    -0.350348   
O89      O      0.597020000000     0.050000000000     0.489220000000    -0.363022   
O90      O      0.372950000000     0.048800000000     0.482390000000    -0.353523   
O91      O      0.418440000000     0.983100000000     0.595890000000    -0.369225   
O92      O      0.547860000000     0.984430000000     0.598800000000    -0.365025   
O93      O      0.524010000000     0.025180000000     0.526100000000    -0.508191   
O94      O      0.444840000000     0.944340000000     0.523790000000    -0.509301   
O95      O      0.524790000000     0.944490000000     0.525680000000    -0.658694   
O96      O      0.444220000000     0.024820000000     0.524730000000    -0.654175   
O97      O      0.418550000000     0.373940000000     0.985470000000    -0.373304   
O98      O      0.422460000000     0.598130000000     0.984550000000    -0.354021   
O99      O      0.372380000000     0.485910000000     0.049510000000    -0.376089   
O100     O      0.372860000000     0.487640000000     0.920200000000    -0.375794   
O101     O      0.420960000000     0.486700000000     0.872600000000    -0.376084   
O102     O      0.420210000000     0.485350000000     0.096870000000    -0.355276   
O103     O      0.373720000000     0.551720000000     0.983990000000    -0.377034   
O104     O      0.371410000000     0.422490000000     0.984950000000    -0.376192   
O105     O      0.445660000000     0.525880000000     0.945000000000    -0.509451   
O106     O      0.444130000000     0.445640000000     0.024950000000    -0.508191   
O107     O      0.445140000000     0.525900000000     0.025420000000    -0.658369   
O108     O      0.444320000000     0.445780000000     0.944730000000    -0.653809   
O109     O      0.551100000000     0.595700000000     0.986880000000    -0.355375   
O110     O      0.547650000000     0.371890000000     0.984230000000    -0.354571   
O111     O      0.485980000000     0.549260000000     0.097630000000    -0.369994   
O112     O      0.485150000000     0.550260000000     0.873220000000    -0.37484    
O113     O      0.485070000000     0.421000000000     0.872550000000    -0.376264   
O114     O      0.482730000000     0.420620000000     0.097280000000    -0.366706   
O115     O      0.597140000000     0.481080000000     0.050230000000    -0.356808   
O116     O      0.597810000000     0.483060000000     0.920810000000    -0.37508    
O117     O      0.549120000000     0.485550000000     0.097740000000    -0.372846   
O118     O      0.550050000000     0.484590000000     0.872870000000    -0.376103   
O119     O      0.487460000000     0.597210000000     0.049960000000    -0.360001   
O120     O      0.482830000000     0.372630000000     0.049580000000    -0.364098   
O121     O      0.484310000000     0.372970000000     0.920210000000    -0.369256   
O122     O      0.486540000000     0.597810000000     0.921320000000    -0.361376   
O123     O      0.598750000000     0.548180000000     0.987490000000    -0.372546   
O124     O      0.596430000000     0.418310000000     0.983860000000    -0.363346   
O125     O      0.524680000000     0.444520000000     0.945080000000    -0.507933   
O126     O      0.525910000000     0.524340000000     0.025400000000    -0.510386   
O127     O      0.524530000000     0.444170000000     0.025280000000    -0.655876   
O128     O      0.526220000000     0.524700000000     0.945230000000    -0.655983   
Zr1      Zr     0.985140000000     0.987080000000     0.065230000000     1.42512    
Zr2      Zr     0.985390000000     0.905430000000     0.987370000000     1.45303    
Zr3      Zr     0.985260000000     0.064540000000     0.982470000000     1.4362     
Zr4      Zr     0.905310000000     0.984670000000     0.985460000000     1.43761    
Zr5      Zr     0.064810000000     0.984870000000     0.985020000000     1.44767    
Zr6      Zr     0.984770000000     0.982300000000     0.905040000000     1.43648    
Zr7      Zr     0.983590000000     0.486770000000     0.405270000000     1.42689    
Zr8      Zr     0.985630000000     0.565100000000     0.486650000000     1.42875    
Zr9      Zr     0.985390000000     0.405260000000     0.483680000000     1.42851    
Zr10     Zr     0.905730000000     0.485130000000     0.487220000000     1.43813    
Zr11     Zr     0.065090000000     0.485060000000     0.483170000000     1.44384    
Zr12     Zr     0.987550000000     0.483920000000     0.564950000000     1.44122    
Zr13     Zr     0.486940000000     0.985480000000     0.405360000000     1.45962    
Zr14     Zr     0.405770000000     0.984660000000     0.483350000000     1.45103    
Zr15     Zr     0.564670000000     0.985510000000     0.486660000000     1.45354    
Zr16     Zr     0.485760000000     0.904830000000     0.484230000000     1.44       
Zr17     Zr     0.484650000000     0.065240000000     0.485370000000     1.42956    
Zr18     Zr     0.483770000000     0.984220000000     0.564850000000     1.43837    
Zr19     Zr     0.405030000000     0.486470000000     0.984910000000     1.42859    
Zr20     Zr     0.486290000000     0.564590000000     0.985440000000     1.45255    
Zr21     Zr     0.483710000000     0.405330000000     0.984930000000     1.43907    
Zr22     Zr     0.484830000000     0.485020000000     0.064780000000     1.44542    
Zr23     Zr     0.485390000000     0.485410000000     0.905300000000     1.42998    
Zr24     Zr     0.565260000000     0.483700000000     0.985360000000     1.43374    


