data_structure

_audit_creation_method RASPA-1.0
_audit_creation_date 2023-5-19
_audit_author_name 'Poobodin Mano'

_cell_length_a    21.486
_cell_length_b    21.4698
_cell_length_c    21.4337
_cell_angle_alpha 90
_cell_angle_beta  90
_cell_angle_gamma 90
_cell_volume      9887.37

_symmetry_cell_setting          triclinic
_symmetry_space_group_name_Hall 'P 1'
_symmetry_space_group_name_H-M  'P 1'
_symmetry_Int_Tables_number     1

_symmetry_equiv_pos_as_xyz 'x,y,z'

loop_
_atom_site_label
_atom_site_type_symbol
_atom_site_fract_x
_atom_site_fract_y
_atom_site_fract_z
_atom_site_charge
C1       C      0.984440000000     0.143370000000     0.133950000000     0.392579   
C2       C      0.976850000000     0.823780000000     0.141310000000     0.389964   
C3       C      0.816270000000     0.993720000000     0.138490000000     0.394728   
C4       C      0.133530000000     0.976230000000     0.139010000000     0.395875   
C5       C      0.968080000000     0.818490000000     0.821910000000     0.394709   
C6       C      0.970650000000     0.136790000000     0.816430000000     0.392939   
C7       C      0.813400000000     0.823550000000     0.977150000000     0.391955   
C8       C      0.130980000000     0.816100000000     0.984380000000     0.394261   
C9       C      0.139140000000     0.133870000000     0.971050000000     0.392358   
C10      C      0.820360000000     0.141210000000     0.984450000000     0.391338   
C11      C      0.816040000000     0.970440000000     0.820670000000     0.395859   
C12      C      0.134780000000     0.970080000000     0.820240000000     0.391962   
C13      C      0.963680000000     0.323150000000     0.316410000000     0.391068   
C14      C      0.962520000000     0.642330000000     0.324850000000     0.391442   
C15      C      0.809820000000     0.487170000000     0.324720000000     0.392021   
C16      C      0.126960000000     0.481500000000     0.313560000000     0.391347   
C17      C      0.984220000000     0.633240000000     0.642870000000     0.39039    
C18      C      0.988190000000     0.315870000000     0.633780000000     0.392391   
C19      C      0.815670000000     0.636620000000     0.501950000000     0.394534   
C20      C      0.132860000000     0.636070000000     0.474140000000     0.395971   
C21      C      0.134040000000     0.320100000000     0.479780000000     0.393829   
C22      C      0.816610000000     0.318250000000     0.485200000000     0.395515   
C23      C      0.822100000000     0.466780000000     0.644880000000     0.395111   
C24      C      0.138460000000     0.468170000000     0.631460000000     0.393647   
C25      C      0.638050000000     0.971120000000     0.320400000000     0.391933   
C26      C      0.321050000000     0.971360000000     0.318020000000     0.391997   
C27      C      0.468490000000     0.818060000000     0.321150000000     0.391377   
C28      C      0.481640000000     0.137000000000     0.319310000000     0.391853   
C29      C      0.317060000000     0.966490000000     0.635380000000     0.393705   
C30      C      0.635690000000     0.984240000000     0.638520000000     0.391917   
C31      C      0.319700000000     0.819010000000     0.478160000000     0.393735   
C32      C      0.316970000000     0.135160000000     0.480940000000     0.39385    
C33      C      0.633390000000     0.136630000000     0.489890000000     0.395897   
C34      C      0.637950000000     0.817730000000     0.477810000000     0.389718   
C35      C      0.472120000000     0.818720000000     0.639060000000     0.393979   
C36      C      0.486990000000     0.135070000000     0.637420000000     0.394737   
C37      C      0.320990000000     0.319680000000     0.962040000000     0.390164   
C38      C      0.640530000000     0.324960000000     0.971210000000     0.392354   
C39      C      0.485120000000     0.323810000000     0.814590000000     0.393011   
C40      C      0.483030000000     0.319000000000     0.132680000000     0.391599   
C41      C      0.634410000000     0.641860000000     0.994050000000     0.391796   
C42      C      0.317330000000     0.637840000000     0.966950000000     0.389      
C43      C      0.641850000000     0.490710000000     0.823080000000     0.393226   
C44      C      0.629680000000     0.471040000000     0.141930000000     0.390218   
C45      C      0.312680000000     0.479780000000     0.128350000000     0.394861   
C46      C      0.325710000000     0.479110000000     0.810180000000     0.394323   
C47      C      0.494690000000     0.640780000000     0.818580000000     0.398546   
C48      C      0.464200000000     0.637400000000     0.136010000000     0.396435   
C49      C      0.499120000000     0.208440000000     0.161610000000    -0.0115299  
C50      C      0.515310000000     0.292500000000     0.239660000000    -0.0250513  
C51      C      0.467020000000     0.167800000000     0.210170000000    -0.0135691  
C52      C      0.491330000000     0.250240000000     0.292620000000     0.0328095  
C53      C      0.445830000000     0.708500000000     0.293960000000    -0.0116377  
C54      C      0.429680000000     0.792550000000     0.216310000000    -0.0250162  
C55      C      0.475650000000     0.666470000000     0.245530000000    -0.0119514  
C56      C      0.449940000000     0.749340000000     0.162750000000     0.0335244  
C57      C      0.458900000000     0.788440000000     0.750550000000    -0.0134069  
C58      C      0.468500000000     0.706690000000     0.667420000000    -0.0262905  
C59      C      0.505760000000     0.752430000000     0.790830000000    -0.0133705  
C60      C      0.518370000000     0.674220000000     0.706380000000     0.0335496  
C61      C      0.498910000000     0.165340000000     0.748320000000    -0.0112262  
C62      C      0.524880000000     0.240450000000     0.664030000000    -0.0247134  
C63      C      0.464370000000     0.215850000000     0.784020000000    -0.013611   
C64      C      0.495990000000     0.294520000000     0.701160000000     0.0321537  
C65      C      0.660680000000     0.247200000000     0.508030000000    -0.0101872  
C66      C      0.738950000000     0.164120000000     0.525540000000    -0.024294   
C67      C      0.707800000000     0.286910000000     0.473320000000    -0.0134068  
C68      C      0.791030000000     0.205230000000     0.498550000000     0.0329545  
C69      C      0.668730000000     0.706370000000     0.466330000000    -0.0141519  
C70      C      0.750220000000     0.789270000000     0.480340000000    -0.0267034  
C71      C      0.704040000000     0.664750000000     0.512620000000    -0.0133577  
C72      C      0.782080000000     0.748020000000     0.529120000000     0.0329601  
C73      C      0.244660000000     0.292060000000     0.495220000000    -0.0110975  
C74      C      0.161150000000     0.213880000000     0.513300000000    -0.0248911  
C75      C      0.285340000000     0.243340000000     0.463730000000    -0.0133883  
C76      C      0.203660000000     0.160990000000     0.489960000000     0.0328474  
C77      C      0.209320000000     0.792110000000     0.462960000000    -0.0123733  
C78      C      0.289600000000     0.708620000000     0.489400000000    -0.0254664  
C79      C      0.162610000000     0.745660000000     0.489600000000    -0.010154   
C80      C      0.243320000000     0.663910000000     0.458560000000     0.0374429  
C81      C      0.657320000000     0.455390000000     0.254230000000    -0.0135351  
C82      C      0.740370000000     0.459370000000     0.172670000000    -0.0261661  
C83      C      0.697820000000     0.496590000000     0.297060000000    -0.0143658  
C84      C      0.776090000000     0.506710000000     0.211820000000     0.0333975  
C85      C      0.236640000000     0.467960000000     0.283250000000    -0.0133196  
C86      C      0.154760000000     0.497680000000     0.202520000000    -0.0256738  
C87      C      0.281640000000     0.498110000000     0.237440000000    -0.0102377  
C88      C      0.200850000000     0.470040000000     0.154900000000     0.0365704  
C89      C      0.171250000000     0.454370000000     0.741400000000    -0.011423   
C90      C      0.248570000000     0.443990000000     0.655440000000    -0.0247812  
C91      C      0.216850000000     0.493650000000     0.778660000000    -0.0133762  
C92      C      0.298330000000     0.477390000000     0.695050000000     0.0315695  
C93      C      0.673990000000     0.500480000000     0.712150000000    -0.01376    
C94      C      0.754390000000     0.498850000000     0.796940000000    -0.0265364  
C95      C      0.712010000000     0.452830000000     0.675490000000    -0.0121733  
C96      C      0.791580000000     0.450570000000     0.759620000000     0.0342726  
C97      C      0.701830000000     0.793660000000     0.965840000000    -0.015911   
C98      C      0.785100000000     0.711720000000     0.970860000000    -0.0278953  
C99      C      0.660990000000     0.753480000000     0.008850000000    -0.00950485 
C100     C      0.746100000000     0.675830000000     0.018280000000     0.0361187  
C101     C      0.709940000000     0.172900000000     0.998470000000    -0.015041   
C102     C      0.794360000000     0.253220000000     0.997100000000    -0.0283471  
C103     C      0.670030000000     0.214560000000     0.956620000000    -0.0131722  
C104     C      0.754590000000     0.294110000000     0.954090000000     0.0333256  
C105     C      0.284820000000     0.748680000000     0.956300000000    -0.0116847  
C106     C      0.206000000000     0.663700000000     0.949680000000    -0.0249956  
C107     C      0.241110000000     0.785800000000     0.998660000000    -0.0157403  
C108     C      0.161410000000     0.701000000000     0.991440000000     0.0315785  
C109     C      0.210610000000     0.289430000000     0.946410000000    -0.0109713  
C110     C      0.294730000000     0.210690000000     0.935260000000    -0.0243518  
C111     C      0.170780000000     0.243150000000     0.982630000000    -0.0164983  
C112     C      0.253600000000     0.160440000000     0.965990000000     0.0303986  
C113     C      0.746160000000     0.001000000000     0.669430000000    -0.00819965 
C114     C      0.662800000000     0.993680000000     0.750740000000    -0.0279724  
C115     C      0.787960000000     0.958820000000     0.709170000000    -0.016043   
C116     C      0.703410000000     0.948600000000     0.788050000000     0.0333959  
C117     C      0.206350000000     0.949410000000     0.663000000000    -0.0102215  
C118     C      0.289450000000     0.931260000000     0.741240000000    -0.0240577  
C119     C      0.166030000000     0.982540000000     0.711010000000    -0.0157812  
C120     C      0.247470000000     0.955810000000     0.794100000000     0.0305429  
C121     C      0.291330000000     0.958040000000     0.207000000000    -0.0106146  
C122     C      0.213860000000     0.940090000000     0.291270000000    -0.0243437  
C123     C      0.242650000000     0.992570000000     0.168490000000    -0.0156125  
C124     C      0.162490000000     0.971720000000     0.252980000000     0.0315173  
C125     C      0.749600000000     0.961320000000     0.289660000000    -0.0157616  
C126     C      0.665920000000     0.963290000000     0.208180000000    -0.027892   
C127     C      0.788160000000     0.006810000000     0.250080000000    -0.00998519 
C128     C      0.703070000000     0.011900000000     0.171690000000     0.0347417  
C129     C      0.002440000000     0.204240000000     0.663420000000    -0.00754687 
C130     C      0.001570000000     0.287270000000     0.745170000000    -0.02088    
C131     C      0.959340000000     0.164210000000     0.704440000000    -0.0170484  
C132     C      0.953960000000     0.249990000000     0.782630000000     0.0313466  
C133     C      0.994670000000     0.663070000000     0.754930000000    -0.0147266  
C134     C      0.001890000000     0.743660000000     0.671290000000    -0.0209256  
C135     C      0.953870000000     0.707400000000     0.793690000000    -0.0138211  
C136     C      0.957610000000     0.785970000000     0.707530000000     0.0320651  
C137     C      0.989930000000     0.713110000000     0.173000000000    -0.014912   
C138     C      0.985000000000     0.797270000000     0.253830000000    -0.0281042  
C139     C      0.948600000000     0.672000000000     0.214100000000    -0.0131575  
C140     C      0.942570000000     0.756040000000     0.293900000000     0.0335263  
C141     C      0.950670000000     0.212430000000     0.284380000000    -0.0122326  
C142     C      0.953480000000     0.296710000000     0.203910000000    -0.0257828  
C143     C      0.995550000000     0.173570000000     0.244890000000    -0.0157143  
C144     C      0.999250000000     0.257930000000     0.164980000000     0.0308774  
H1       H      0.884090000000     0.893470000000     0.070880000000     0.207077   
H2       H      0.067110000000     0.067990000000     0.066020000000     0.211526   
H3       H      0.886840000000     0.068690000000     0.888760000000     0.209192   
H4       H      0.062150000000     0.886690000000     0.891250000000     0.210589   
H5       H      0.881470000000     0.569650000000     0.397020000000     0.209493   
H6       H      0.060100000000     0.390150000000     0.383530000000     0.209691   
H7       H      0.889980000000     0.386490000000     0.569300000000     0.210723   
H8       H      0.067600000000     0.564610000000     0.566760000000     0.210221   
H9       H      0.390580000000     0.888810000000     0.390840000000     0.213786   
H10      H      0.567980000000     0.066750000000     0.390520000000     0.208014   
H11      H      0.567450000000     0.887750000000     0.569930000000     0.20755    
H12      H      0.387190000000     0.066180000000     0.569050000000     0.209099   
H13      H      0.571110000000     0.394890000000     0.888240000000     0.211086   
H14      H      0.386710000000     0.388120000000     0.061050000000     0.20627    
H15      H      0.391520000000     0.570040000000     0.883690000000     0.20977    
H16      H      0.561740000000     0.569110000000     0.070990000000     0.209821   
H17      H      0.415890000000     0.174650000000     0.205910000000     0.0399611  
H18      H      0.479070000000     0.197330000000     0.115100000000     0.0394091  
H19      H      0.444240000000     0.266990000000     0.306150000000     0.0311415  
H20      H      0.503330000000     0.341460000000     0.251670000000     0.0459217  
H21      H      0.476760000000     0.118390000000     0.198100000000     0.0410476  
H22      H      0.549450000000     0.196320000000     0.160570000000     0.038978   
H23      H      0.567070000000     0.290100000000     0.237710000000     0.0439133  
H24      H      0.508690000000     0.281890000000     0.408940000000     0.0324093  
H25      H      0.527100000000     0.670480000000     0.249690000000     0.038417   
H26      H      0.465880000000     0.696730000000     0.340310000000     0.0407039  
H27      H      0.495610000000     0.766230000000     0.145100000000     0.0308773  
H28      H      0.442590000000     0.841030000000     0.203380000000     0.0450707  
H29      H      0.463160000000     0.617640000000     0.257480000000     0.0406859  
H30      H      0.395050000000     0.698410000000     0.295610000000     0.0395966  
H31      H      0.378030000000     0.791850000000     0.220920000000     0.0417451  
H32      H      0.422940000000     0.783260000000     0.049210000000     0.0311707  
H33      H      0.552900000000     0.771940000000     0.781880000000     0.0374489  
H34      H      0.463580000000     0.838980000000     0.760600000000     0.0398831  
H35      H      0.563370000000     0.697190000000     0.694800000000     0.0296376  
H36      H      0.477790000000     0.698440000000     0.617070000000     0.045754   
H37      H      0.494720000000     0.761180000000     0.840690000000     0.0399401  
H38      H      0.411230000000     0.774130000000     0.764830000000     0.0377818  
H39      H      0.422460000000     0.685780000000     0.678690000000     0.0452934  
H40      H      0.575860000000     0.590730000000     0.640050000000     0.0257105  
H41      H      0.414200000000     0.213160000000     0.771480000000     0.0393909  
H42      H      0.476880000000     0.119710000000     0.759020000000     0.0398964  
H43      H      0.449420000000     0.304310000000     0.680940000000     0.0315956  
H44      H      0.519890000000     0.250630000000     0.613400000000     0.0468331  
H45      H      0.467940000000     0.204660000000     0.834520000000     0.0414029  
H46      H      0.547900000000     0.163830000000     0.765040000000     0.0385739  
H47      H      0.575730000000     0.238420000000     0.673930000000     0.0411827  
H48      H      0.596200000000     0.358480000000     0.724300000000     0.0350951  
H49      H      0.702200000000     0.278430000000     0.422430000000     0.0407942  
H50      H      0.613550000000     0.257930000000     0.489590000000     0.0401369  
H51      H      0.803300000000     0.186730000000     0.451680000000     0.0313823  
H52      H      0.750880000000     0.114590000000     0.516130000000     0.0456915  
H53      H      0.695780000000     0.336540000000     0.481890000000     0.0409678  
H54      H      0.661540000000     0.260410000000     0.558230000000     0.0372833  
H55      H      0.737500000000     0.169540000000     0.577210000000     0.0426593  
H56      H      0.907500000000     0.174360000000     0.514280000000     0.0323318  
H57      H      0.684030000000     0.672420000000     0.559880000000     0.0370325  
H58      H      0.618170000000     0.696280000000     0.470300000000     0.0404506  
H59      H      0.758520000000     0.757770000000     0.574350000000     0.0297452  
H60      H      0.757750000000     0.839010000000     0.492660000000     0.044499   
H61      H      0.695190000000     0.615350000000     0.500040000000     0.0400409  
H62      H      0.683420000000     0.693250000000     0.418350000000     0.0385911  
H63      H      0.772330000000     0.780740000000     0.434200000000     0.0433537  
H64      H      0.863270000000     0.818610000000     0.584230000000     0.025672   
H65      H      0.277960000000     0.246410000000     0.412460000000     0.040112   
H66      H      0.255450000000     0.338160000000     0.474200000000     0.0402792  
H67      H      0.187000000000     0.146740000000     0.442950000000     0.0318714  
H68      H      0.112290000000     0.201390000000     0.501510000000     0.0460223  
H69      H      0.334720000000     0.255950000000     0.472740000000     0.0411564  
H70      H      0.257070000000     0.294140000000     0.545580000000     0.0392815  
H71      H      0.163660000000     0.216700000000     0.565140000000     0.0444433  
H72      H      0.172710000000     0.044960000000     0.509010000000     0.0332036  
H73      H      0.162080000000     0.749930000000     0.541300000000     0.0378049  
H74      H      0.197770000000     0.838970000000     0.481820000000     0.0408285  
H75      H      0.254710000000     0.616370000000     0.475710000000     0.0300722  
H76      H      0.288340000000     0.700990000000     0.540700000000     0.0427496  
H77      H      0.115430000000     0.758730000000     0.472690000000     0.0420825  
H78      H      0.203440000000     0.794640000000     0.411480000000     0.0416282  
H79      H      0.337580000000     0.696710000000     0.473900000000     0.0457692  
H80      H      0.228990000000     0.609950000000     0.351290000000     0.040656   
H81      H      0.681360000000     0.545490000000     0.292390000000     0.0359327  
H82      H      0.607490000000     0.465480000000     0.263720000000     0.0400044  
H83      H      0.756080000000     0.553270000000     0.200840000000     0.0276142  
H84      H      0.750200000000     0.467120000000     0.122380000000     0.0445974  
H85      H      0.689350000000     0.482180000000     0.346110000000     0.0402471  
H86      H      0.665770000000     0.405910000000     0.267020000000     0.0389321  
H87      H      0.757230000000     0.411840000000     0.184670000000     0.046178   
H88      H      0.864820000000     0.563660000000     0.151860000000     0.0262302  
H89      H      0.278990000000     0.549570000000     0.242670000000     0.0399508  
H90      H      0.248980000000     0.484300000000     0.330900000000     0.0397888  
H91      H      0.190130000000     0.491250000000     0.108780000000     0.0313941  
H92      H      0.155310000000     0.549260000000     0.197760000000     0.0430369  
H93      H      0.329630000000     0.483860000000     0.250550000000     0.0405568  
H94      H      0.243430000000     0.416630000000     0.282530000000     0.041671   
H95      H      0.106660000000     0.482490000000     0.190750000000     0.0463947  
H96      H      0.205370000000     0.368920000000     0.088800000000     0.0370182  
H97      H      0.208450000000     0.543500000000     0.767280000000     0.0373432  
H98      H      0.123220000000     0.469300000000     0.753540000000     0.041335   
H99      H      0.301050000000     0.526510000000     0.678850000000     0.0315775  
H100     H      0.257490000000     0.454530000000     0.605430000000     0.0460912  
H101     H      0.205670000000     0.487450000000     0.828890000000     0.0414413  
H102     H      0.176620000000     0.404830000000     0.755650000000     0.0408027  
H103     H      0.253870000000     0.392720000000     0.661260000000     0.04242    
H104     H      0.373190000000     0.383240000000     0.703870000000     0.0414102  
H105     H      0.695600000000     0.405470000000     0.688500000000     0.0354212  
H106     H      0.624020000000     0.493150000000     0.701310000000     0.0429099  
H107     H      0.773480000000     0.404180000000     0.774090000000     0.0283049  
H108     H      0.761930000000     0.491000000000     0.847660000000     0.0491601  
H109     H      0.701830000000     0.459120000000     0.625090000000     0.0412664  
H110     H      0.686930000000     0.547840000000     0.695600000000     0.0410938  
H111     H      0.772350000000     0.546070000000     0.785390000000     0.0471843  
H112     H      0.894570000000     0.393020000000     0.785340000000     0.0321929  
H113     H      0.667930000000     0.769880000000     0.057590000000     0.0362583  
H114     H      0.691770000000     0.843490000000     0.975460000000     0.0417431  
H115     H      0.757100000000     0.696320000000     0.064710000000     0.0277891  
H116     H      0.835270000000     0.703190000000     0.980240000000     0.0468201  
H117     H      0.611470000000     0.762190000000     0.996760000000     0.0391157  
H118     H      0.688100000000     0.784050000000     0.916750000000     0.0404406  
H119     H      0.774650000000     0.693540000000     0.923380000000     0.0476783  
H120     H      0.759260000000     0.573090000000     0.079810000000     0.0330925  
H121     H      0.678350000000     0.200790000000     0.907280000000     0.0373124  
H122     H      0.698680000000     0.123520000000     0.987860000000     0.0419339  
H123     H      0.766240000000     0.280050000000     0.905500000000     0.0290137  
H124     H      0.844360000000     0.261330000000     0.986550000000     0.0444827  
H125     H      0.620410000000     0.204530000000     0.967140000000     0.0408586  
H126     H      0.696730000000     0.181800000000     0.047840000000     0.0413965  
H127     H      0.786110000000     0.267700000000     0.046260000000     0.0450398  
H128     H      0.780940000000     0.390750000000     0.023180000000     0.0373978  
H129     H      0.252830000000     0.774480000000     0.047910000000     0.0433125  
H130     H      0.333690000000     0.760030000000     0.968700000000     0.0388455  
H131     H      0.170280000000     0.685790000000     0.040250000000     0.0334544  
H132     H      0.197770000000     0.613140000000     0.957340000000     0.0456646  
H133     H      0.251260000000     0.836060000000     0.991950000000     0.0418116  
H134     H      0.277100000000     0.763960000000     0.907340000000     0.0381223  
H135     H      0.194730000000     0.673870000000     0.900020000000     0.0421364  
H136     H      0.049330000000     0.670380000000     0.025840000000     0.0352235  
H137     H      0.179000000000     0.250630000000     0.033320000000     0.039836   
H138     H      0.199280000000     0.337140000000     0.963050000000     0.0396311  
H139     H      0.269560000000     0.154870000000     0.015030000000     0.0305805  
H140     H      0.344190000000     0.200250000000     0.946450000000     0.0443283  
H141     H      0.121220000000     0.254770000000     0.973430000000     0.0447159  
H142     H      0.197770000000     0.286590000000     0.896210000000     0.0410931  
H143     H      0.289930000000     0.207460000000     0.883620000000     0.0442241  
H144     H      0.285900000000     0.043470000000     0.967770000000     0.0298308  
H145     H      0.782100000000     0.910040000000     0.692690000000     0.0378077  
H146     H      0.757090000000     0.992950000000     0.619400000000     0.0376129  
H147     H      0.693550000000     0.901110000000     0.769700000000     0.0299527  
H148     H      0.612960000000     0.982460000000     0.759020000000     0.0454311  
H149     H      0.837010000000     0.972400000000     0.700150000000     0.0397324  
H150     H      0.758030000000     0.050260000000     0.680220000000     0.0370454  
H151     H      0.671220000000     0.041820000000     0.768050000000     0.0456323  
H152     H      0.638240000000     0.898220000000     0.876980000000     0.0261341  
H153     H      0.173630000000     0.033580000000     0.706380000000     0.0430081  
H154     H      0.195680000000     0.968970000000     0.616210000000     0.0398488  
H155     H      0.265660000000     0.002070000000     0.808550000000     0.0349001  
H156     H      0.338590000000     0.941800000000     0.753660000000     0.0450349  
H157     H      0.116570000000     0.973380000000     0.698810000000     0.0425279  
H158     H      0.193540000000     0.899200000000     0.662500000000     0.0392154  
H159     H      0.285670000000     0.879580000000     0.738610000000     0.0431569  
H160     H      0.282190000000     0.934350000000     0.908930000000     0.0301042  
H161     H      0.248090000000     0.043340000000     0.177290000000     0.0398928  
H162     H      0.337880000000     0.977860000000     0.196080000000     0.039203   
H163     H      0.157540000000     0.020280000000     0.270350000000     0.0323283  
H164     H      0.203600000000     0.947270000000     0.341630000000     0.0455512  
H165     H      0.253600000000     0.984630000000     0.118440000000     0.0408117  
H166     H      0.291450000000     0.908240000000     0.192640000000     0.0376714  
H167     H      0.212330000000     0.888950000000     0.282660000000     0.0430748  
H168     H      0.045950000000     0.972300000000     0.287090000000     0.031133   
H169     H      0.778290000000     0.054870000000     0.266750000000     0.0381261  
H170     H      0.759780000000     0.969880000000     0.339750000000     0.040448   
H171     H      0.690100000000     0.058110000000     0.191350000000     0.0303409  
H172     H      0.615400000000     0.970690000000     0.199820000000     0.0462022  
H173     H      0.838210000000     0.997540000000     0.259120000000     0.0386654  
H174     H      0.765160000000     0.913180000000     0.278550000000     0.0385893  
H175     H      0.678120000000     0.916230000000     0.190180000000     0.0449909  
H176     H      0.641950000000     0.065810000000     0.081890000000     0.027305   
H177     H      0.910660000000     0.171790000000     0.688570000000     0.0383218  
H178     H      0.992640000000     0.194080000000     0.613570000000     0.0382485  
H179     H      0.907400000000     0.262670000000     0.763690000000     0.0287227  
H180     H      0.994980000000     0.337810000000     0.754190000000     0.0444531  
H181     H      0.970650000000     0.114470000000     0.695780000000     0.0414818  
H182     H      0.051290000000     0.189920000000     0.672850000000     0.0386538  
H183     H      0.049040000000     0.274590000000     0.761620000000     0.0460766  
H184     H      0.894650000000     0.292120000000     0.879680000000     0.0300387  
H185     H      0.904330000000     0.695120000000     0.784990000000     0.0408099  
H186     H      0.980460000000     0.614330000000     0.765040000000     0.04238    
H187     H      0.909570000000     0.773170000000     0.693000000000     0.0323436  
H188     H      0.996570000000     0.752690000000     0.620490000000     0.045582   
H189     H      0.963240000000     0.698130000000     0.843810000000     0.0426961  
H190     H      0.043750000000     0.668680000000     0.770420000000     0.0392753  
H191     H      0.050570000000     0.755930000000     0.684130000000     0.0424392  
H192     H      0.914320000000     0.891770000000     0.667100000000     0.0303195  
H193     H      0.899380000000     0.679060000000     0.199620000000     0.0359436  
H194     H      0.980120000000     0.701910000000     0.123350000000     0.039813   
H195     H      0.894030000000     0.766380000000     0.279000000000     0.0276301  
H196     H      0.972310000000     0.846850000000     0.261770000000     0.0462234  
H197     H      0.960580000000     0.622690000000     0.204030000000     0.0413683  
H198     H      0.039350000000     0.700820000000     0.182300000000     0.0424941  
H199     H      0.033940000000     0.790720000000     0.269480000000     0.0495282  
H200     H      0.889720000000     0.791380000000     0.396950000000     0.0322878  
H201     H      0.043780000000     0.183670000000     0.260840000000     0.0394319  
H202     H      0.958530000000     0.201370000000     0.334400000000     0.0403424  
H203     H      0.046720000000     0.270960000000     0.181130000000     0.0332754  
H204     H      0.962810000000     0.347040000000     0.196000000000     0.046925   
H205     H      0.986430000000     0.123620000000     0.254770000000     0.0415254  
H206     H      0.902340000000     0.198060000000     0.272620000000     0.0406036  
H207     H      0.905360000000     0.286880000000     0.187410000000     0.0442746  
H208     H      0.933730000000     0.283360000000     0.065670000000     0.0364593  
N1       N      0.485800000000     0.183210000000     0.274790000000    -0.167859   
N2       N      0.492220000000     0.274490000000     0.177730000000    -0.163547   
N3       N      0.457580000000     0.682660000000     0.180950000000    -0.168286   
N4       N      0.455290000000     0.773950000000     0.276930000000    -0.16407    
N5       N      0.505470000000     0.685610000000     0.773830000000    -0.1689     
N6       N      0.467430000000     0.773370000000     0.683830000000    -0.164682   
N7       N      0.487360000000     0.279090000000     0.768570000000    -0.169307   
N8       N      0.498200000000     0.179880000000     0.681500000000    -0.164441   
N9       N      0.772700000000     0.271990000000     0.491020000000    -0.168827   
N10      N      0.677300000000     0.181270000000     0.501730000000    -0.16462    
N11      N      0.770890000000     0.681300000000     0.513520000000    -0.168035   
N12      N      0.683560000000     0.772870000000     0.476390000000    -0.163602   
N13      N      0.270490000000     0.179250000000     0.484170000000    -0.168272   
N14      N      0.178700000000     0.275390000000     0.489040000000    -0.163854   
N15      N      0.178200000000     0.680840000000     0.473020000000    -0.171269   
N16      N      0.274220000000     0.774420000000     0.477030000000    -0.163087   
N17      N      0.764520000000     0.494080000000     0.279450000000    -0.168221   
N18      N      0.673730000000     0.463930000000     0.187860000000    -0.163675   
N19      N      0.266420000000     0.481680000000     0.172380000000    -0.170384   
N20      N      0.171250000000     0.481930000000     0.267540000000    -0.163028   
N21      N      0.282150000000     0.478180000000     0.762940000000    -0.168694   
N22      N      0.184920000000     0.460280000000     0.674560000000    -0.16438    
N23      N      0.778710000000     0.458540000000     0.691570000000    -0.169409   
N24      N      0.688110000000     0.495620000000     0.779330000000    -0.163754   
N25      N      0.678870000000     0.686950000000     0.005010000000    -0.168629   
N26      N      0.768400000000     0.778340000000     0.973360000000    -0.163363   
N27      N      0.686970000000     0.280990000000     0.964380000000    -0.168858   
N28      N      0.776540000000     0.187300000000     0.990440000000    -0.163286   
N29      N      0.175060000000     0.769260000000     0.987350000000    -0.167163   
N30      N      0.271160000000     0.681700000000     0.961000000000    -0.164077   
N31      N      0.186140000000     0.177630000000     0.967360000000    -0.166451   
N32      N      0.276870000000     0.274180000000     0.953460000000    -0.164147   
N33      N      0.770530000000     0.962210000000     0.775980000000    -0.168184   
N34      N      0.679920000000     0.990630000000     0.684240000000    -0.16524    
N35      N      0.180830000000     0.963990000000     0.775850000000    -0.166895   
N36      N      0.272260000000     0.955660000000     0.679660000000    -0.164152   
N37      N      0.178190000000     0.974380000000     0.185110000000    -0.167803   
N38      N      0.276110000000     0.962180000000     0.273620000000    -0.164903   
N39      N      0.770890000000     0.002260000000     0.183290000000    -0.167934   
N40      N      0.682730000000     0.966770000000     0.274820000000    -0.163744   
N41      N      0.963960000000     0.182070000000     0.771150000000    -0.168281   
N42      N      0.995790000000     0.270900000000     0.678670000000    -0.165834   
N43      N      0.963540000000     0.773520000000     0.775990000000    -0.167673   
N44      N      0.990720000000     0.678150000000     0.687990000000    -0.164728   
N45      N      0.954960000000     0.688800000000     0.280840000000    -0.168017   
N46      N      0.980650000000     0.779600000000     0.187530000000    -0.162909   
N47      N      0.990210000000     0.190030000000     0.177980000000    -0.167932   
N48      N      0.957990000000     0.279230000000     0.270210000000    -0.163802   
O1       O      0.984050000000     0.158290000000     0.075780000000    -0.375543   
O2       O      0.975580000000     0.805020000000     0.083920000000    -0.374545   
O3       O      0.873800000000     0.992040000000     0.156360000000    -0.378987   
O4       O      0.075970000000     0.980770000000     0.155380000000    -0.376315   
O5       O      0.151580000000     0.974640000000     0.081390000000    -0.376245   
O6       O      0.799750000000     0.988480000000     0.080940000000    -0.374267   
O7       O      0.975690000000     0.881840000000     0.157650000000    -0.375915   
O8       O      0.980930000000     0.086190000000     0.153170000000    -0.372947   
O9       O      0.036180000000     0.916730000000     0.043630000000    -0.504438   
O10      O      0.914220000000     0.045230000000     0.040300000000    -0.506379   
O11      O      0.910610000000     0.918330000000     0.044340000000    -0.647652   
O12      O      0.040080000000     0.042230000000     0.040940000000    -0.648978   
O13      O      0.969220000000     0.800990000000     0.879830000000    -0.371978   
O14      O      0.974020000000     0.153730000000     0.873960000000    -0.377116   
O15      O      0.796330000000     0.881380000000     0.977840000000    -0.373626   
O16      O      0.150010000000     0.873340000000     0.982920000000    -0.374879   
O17      O      0.154200000000     0.075930000000     0.976440000000    -0.375962   
O18      O      0.801330000000     0.084100000000     0.981920000000    -0.374284   
O19      O      0.873600000000     0.971320000000     0.802700000000    -0.372712   
O20      O      0.077350000000     0.972910000000     0.801880000000    -0.374923   
O21      O      0.799600000000     0.976050000000     0.878190000000    -0.37422    
O22      O      0.151200000000     0.972510000000     0.878130000000    -0.375245   
O23      O      0.870780000000     0.805640000000     0.979120000000    -0.380345   
O24      O      0.878400000000     0.157330000000     0.982760000000    -0.373871   
O25      O      0.081940000000     0.153080000000     0.970080000000    -0.371283   
O26      O      0.072910000000     0.801190000000     0.984020000000    -0.375243   
O27      O      0.970220000000     0.876020000000     0.805290000000    -0.373152   
O28      O      0.971780000000     0.078940000000     0.799200000000    -0.378756   
O29      O      0.040910000000     0.040120000000     0.914310000000    -0.505041   
O30      O      0.912150000000     0.917730000000     0.917470000000    -0.507453   
O31      O      0.913150000000     0.043020000000     0.914690000000    -0.649506   
O32      O      0.036980000000     0.913990000000     0.916650000000    -0.64853    
O33      O      0.967590000000     0.304040000000     0.373520000000    -0.379427   
O34      O      0.965870000000     0.657340000000     0.383020000000    -0.375139   
O35      O      0.867030000000     0.484850000000     0.307210000000    -0.374108   
O36      O      0.069010000000     0.486400000000     0.297740000000    -0.375126   
O37      O      0.145840000000     0.475910000000     0.370530000000    -0.38189    
O38      O      0.793070000000     0.484650000000     0.382900000000    -0.375901   
O39      O      0.964510000000     0.585140000000     0.305620000000    -0.373334   
O40      O      0.964310000000     0.381310000000     0.300380000000    -0.37522    
O41      O      0.034930000000     0.543340000000     0.415240000000    -0.508253   
O42      O      0.909080000000     0.416920000000     0.416760000000    -0.504553   
O43      O      0.908650000000     0.542620000000     0.420520000000    -0.651871   
O44      O      0.035330000000     0.415870000000     0.410910000000    -0.653315   
O45      O      0.981660000000     0.651320000000     0.585380000000    -0.376716   
O46      O      0.983910000000     0.298790000000     0.576000000000    -0.372056   
O47      O      0.797870000000     0.579130000000     0.497650000000    -0.375462   
O48      O      0.150040000000     0.578570000000     0.469850000000    -0.382319   
O49      O      0.151700000000     0.377490000000     0.475870000000    -0.376451   
O50      O      0.797990000000     0.375630000000     0.484510000000    -0.377751   
O51      O      0.880150000000     0.469690000000     0.659570000000    -0.377588   
O52      O      0.081750000000     0.470680000000     0.651410000000    -0.375687   
O53      O      0.802350000000     0.469740000000     0.587840000000    -0.374693   
O54      O      0.153780000000     0.470960000000     0.573150000000    -0.376099   
O55      O      0.872990000000     0.653700000000     0.496350000000    -0.37075    
O56      O      0.874240000000     0.302050000000     0.481030000000    -0.380246   
O57      O      0.076400000000     0.302680000000     0.478790000000    -0.376027   
O58      O      0.075580000000     0.653830000000     0.480000000000    -0.37626    
O59      O      0.982550000000     0.575410000000     0.659820000000    -0.377312   
O60      O      0.986370000000     0.373250000000     0.651910000000    -0.376075   
O61      O      0.038750000000     0.414680000000     0.537720000000    -0.509614   
O62      O      0.912710000000     0.539640000000     0.546300000000    -0.505975   
O63      O      0.913960000000     0.413730000000     0.542740000000    -0.649249   
O64      O      0.040150000000     0.539700000000     0.541270000000    -0.653458   
O65      O      0.655750000000     0.973910000000     0.378090000000    -0.378315   
O66      O      0.303760000000     0.972200000000     0.375790000000    -0.378639   
O67      O      0.471230000000     0.875660000000     0.303490000000    -0.375444   
O68      O      0.481380000000     0.079420000000     0.301120000000    -0.376589   
O69      O      0.478090000000     0.153360000000     0.377160000000    -0.378438   
O70      O      0.472970000000     0.800130000000     0.378550000000    -0.379071   
O71      O      0.378370000000     0.975510000000     0.300060000000    -0.37656    
O72      O      0.580420000000     0.971750000000     0.303040000000    -0.37942    
O73      O      0.413930000000     0.040880000000     0.413700000000    -0.509664   
O74      O      0.541500000000     0.913980000000     0.415550000000    -0.506589   
O75      O      0.416880000000     0.914810000000     0.416360000000    -0.655355   
O76      O      0.541480000000     0.040730000000     0.415910000000    -0.648306   
O77      O      0.299850000000     0.970380000000     0.577730000000    -0.377883   
O78      O      0.653940000000     0.982580000000     0.581030000000    -0.375279   
O79      O      0.377130000000     0.801170000000     0.482180000000    -0.372956   
O80      O      0.374390000000     0.153640000000     0.481260000000    -0.379298   
O81      O      0.576160000000     0.154240000000     0.484460000000    -0.375673   
O82      O      0.580400000000     0.799960000000     0.476420000000    -0.378575   
O83      O      0.473140000000     0.876210000000     0.656880000000    -0.378586   
O84      O      0.480690000000     0.078030000000     0.655840000000    -0.377848   
O85      O      0.474860000000     0.801400000000     0.581320000000    -0.378958   
O86      O      0.485930000000     0.152140000000     0.579620000000    -0.374964   
O87      O      0.302480000000     0.876520000000     0.474600000000    -0.378712   
O88      O      0.654990000000     0.875500000000     0.480300000000    -0.378253   
O89      O      0.651380000000     0.079160000000     0.487750000000    -0.3756     
O90      O      0.300970000000     0.077370000000     0.477490000000    -0.380168   
O91      O      0.374440000000     0.969340000000     0.653510000000    -0.377281   
O92      O      0.577980000000     0.981130000000     0.655480000000    -0.377749   
O93      O      0.538230000000     0.038520000000     0.540390000000    -0.508234   
O94      O      0.415060000000     0.914160000000     0.540980000000    -0.509264   
O95      O      0.541620000000     0.913480000000     0.543550000000    -0.649657   
O96      O      0.413280000000     0.040630000000     0.542740000000    -0.652586   
O97      O      0.302520000000     0.376950000000     0.964830000000    -0.376431   
O98      O      0.655840000000     0.382810000000     0.975010000000    -0.376877   
O99      O      0.483520000000     0.305340000000     0.872000000000    -0.376764   
O100     O      0.481990000000     0.301510000000     0.074900000000    -0.378347   
O101     O      0.478920000000     0.376470000000     0.150440000000    -0.376094   
O102     O      0.483920000000     0.381750000000     0.798440000000    -0.37623    
O103     O      0.583180000000     0.306090000000     0.971690000000    -0.374422   
O104     O      0.378830000000     0.302950000000     0.965030000000    -0.376648   
O105     O      0.539020000000     0.417670000000     0.040170000000    -0.507585   
O106     O      0.418370000000     0.417280000000     0.909930000000    -0.508702   
O107     O      0.543980000000     0.419390000000     0.914450000000    -0.653896   
O108     O      0.413090000000     0.414910000000     0.036310000000    -0.646689   
O109     O      0.651670000000     0.584490000000     0.990290000000    -0.376782   
O110     O      0.301080000000     0.579790000000     0.967740000000    -0.377269   
O111     O      0.585060000000     0.487160000000     0.803560000000    -0.37636    
O112     O      0.571720000000     0.474020000000     0.158050000000    -0.374944   
O113     O      0.369710000000     0.481220000000     0.147620000000    -0.379441   
O114     O      0.383770000000     0.483490000000     0.795650000000    -0.377591   
O115     O      0.490470000000     0.658230000000     0.876260000000    -0.377086   
O116     O      0.467360000000     0.654930000000     0.078530000000    -0.377007   
O117     O      0.489990000000     0.583560000000     0.801280000000    -0.373939   
O118     O      0.467650000000     0.579770000000     0.153590000000    -0.37736    
O119     O      0.657450000000     0.490160000000     0.881390000000    -0.373845   
O120     O      0.306080000000     0.476790000000     0.867230000000    -0.375517   
O121     O      0.296840000000     0.476870000000     0.070190000000    -0.378442   
O122     O      0.648660000000     0.473560000000     0.084660000000    -0.375869   
O123     O      0.576820000000     0.659150000000     0.989570000000    -0.375404   
O124     O      0.374540000000     0.656670000000     0.969830000000    -0.377001   
O125     O      0.412230000000     0.541780000000     0.036670000000    -0.504999   
O126     O      0.542510000000     0.545420000000     0.916030000000    -0.509808   
O127     O      0.416180000000     0.544110000000     0.910960000000    -0.652638   
O128     O      0.537490000000     0.543900000000     0.042700000000    -0.650609   
S1       S      0.542540000000     0.263340000000     0.358030000000    -0.0396533  
S2       S      0.393880000000     0.759870000000     0.101080000000    -0.0326026  
S3       S      0.527020000000     0.594920000000     0.680970000000    -0.0274656  
S4       S      0.544510000000     0.361530000000     0.686980000000    -0.0411705  
S5       S      0.857490000000     0.193980000000     0.548750000000    -0.0406926  
S6       S      0.861330000000     0.772190000000     0.540450000000    -0.0314263  
S7       S      0.191060000000     0.096330000000     0.542210000000    -0.0389775  
S8       S      0.254260000000     0.663200000000     0.375830000000    -0.0421166  
S9       S      0.855380000000     0.509830000000     0.184880000000    -0.0338142  
S10      S      0.188290000000     0.388010000000     0.147370000000    -0.0430498  
S11      S      0.371420000000     0.440780000000     0.676340000000    -0.0342284  
S12      S      0.871400000000     0.452430000000     0.784600000000    -0.0351888  
S13      S      0.772820000000     0.596580000000     0.022060000000    -0.0376399  
S14      S      0.780520000000     0.373480000000     0.961590000000    -0.0411899  
S15      S      0.083610000000     0.676420000000     0.972270000000    -0.0382547  
S16      S      0.270510000000     0.088840000000     0.925510000000    -0.0325744  
S17      S      0.677390000000     0.947750000000     0.867790000000    -0.0320297  
S18      S      0.258030000000     0.903090000000     0.858750000000    -0.0388427  
S19      S      0.091700000000     0.930640000000     0.271460000000    -0.0325136  
S20      S      0.676760000000     0.013300000000     0.092060000000    -0.0297655  
S21      S      0.954100000000     0.277140000000     0.862070000000    -0.0355043  
S22      S      0.970280000000     0.864420000000     0.680640000000    -0.0365792  
S23      S      0.948250000000     0.781770000000     0.373540000000    -0.0354527  
S24      S      0.994510000000     0.283360000000     0.085110000000    -0.0369118  
Zr1      Zr     0.974860000000     0.982740000000     0.104930000000     1.4206     
Zr2      Zr     0.972830000000     0.854190000000     0.981210000000     1.4228     
Zr3      Zr     0.978880000000     0.104700000000     0.976090000000     1.42462    
Zr4      Zr     0.850270000000     0.981730000000     0.979480000000     1.42605    
Zr5      Zr     0.100710000000     0.976060000000     0.979500000000     1.42303    
Zr6      Zr     0.975540000000     0.978300000000     0.853030000000     1.41994    
Zr7      Zr     0.969870000000     0.481830000000     0.353610000000     1.42235    
Zr8      Zr     0.973970000000     0.603340000000     0.482810000000     1.42687    
Zr9      Zr     0.974720000000     0.352950000000     0.475910000000     1.4278     
Zr10     Zr     0.848050000000     0.477780000000     0.483660000000     1.41867    
Zr11     Zr     0.099170000000     0.477750000000     0.473690000000     1.43364    
Zr12     Zr     0.978830000000     0.475850000000     0.604490000000     1.4324     
Zr13     Zr     0.478830000000     0.977730000000     0.352860000000     1.4224     
Zr14     Zr     0.353130000000     0.977290000000     0.477750000000     1.43358    
Zr15     Zr     0.603280000000     0.976770000000     0.479340000000     1.42228    
Zr16     Zr     0.479020000000     0.851530000000     0.479430000000     1.42941    
Zr17     Zr     0.476100000000     0.102250000000     0.478320000000     1.42886    
Zr18     Zr     0.476640000000     0.976760000000     0.604560000000     1.42783    
Zr19     Zr     0.479850000000     0.354580000000     0.974230000000     1.42133    
Zr20     Zr     0.602800000000     0.482570000000     0.980890000000     1.43091    
Zr21     Zr     0.352660000000     0.478600000000     0.971090000000     1.42162    
Zr22     Zr     0.482430000000     0.482330000000     0.851000000000     1.4384     
Zr23     Zr     0.473130000000     0.478790000000     0.101390000000     1.42474    
Zr24     Zr     0.476600000000     0.606460000000     0.976950000000     1.42354    


