data_structure

_audit_creation_method RASPA-1.0
_audit_creation_date 2023-5-19
_audit_author_name 'Poobodin Mano'

_cell_length_a    21.5254
_cell_length_b    21.5559
_cell_length_c    21.5405
_cell_angle_alpha 90
_cell_angle_beta  90
_cell_angle_gamma 90
_cell_volume      9994.78

_symmetry_cell_setting          triclinic
_symmetry_space_group_name_Hall 'P 1'
_symmetry_space_group_name_H-M  'P 1'
_symmetry_Int_Tables_number     1

_symmetry_equiv_pos_as_xyz 'x,y,z'

loop_
_atom_site_label
_atom_site_type_symbol
_atom_site_fract_x
_atom_site_fract_y
_atom_site_fract_z
_atom_site_charge
C1       C      0.977190000000     0.136420000000     0.137000000000     0.391764   
C2       C      0.984510000000     0.818870000000     0.138100000000     0.404321   
C3       C      0.821670000000     0.976770000000     0.138400000000     0.393731   
C4       C      0.139930000000     0.978670000000     0.136150000000     0.403347   
C5       C      0.978890000000     0.818050000000     0.820840000000     0.394356   
C6       C      0.978340000000     0.134570000000     0.818870000000     0.403394   
C7       C      0.822840000000     0.816740000000     0.979300000000     0.39446    
C8       C      0.140840000000     0.821220000000     0.979840000000     0.403445   
C9       C      0.135700000000     0.138710000000     0.977690000000     0.403151   
C10      C      0.818330000000     0.133600000000     0.980690000000     0.405037   
C11      C      0.819650000000     0.975150000000     0.821560000000     0.393835   
C12      C      0.136860000000     0.979560000000     0.818630000000     0.40471    
C13      C      0.977710000000     0.320010000000     0.318750000000     0.402774   
C14      C      0.983080000000     0.637230000000     0.321680000000     0.393859   
C15      C      0.821510000000     0.477270000000     0.319540000000     0.405153   
C16      C      0.138570000000     0.477880000000     0.320580000000     0.393836   
C17      C      0.978960000000     0.634690000000     0.639100000000     0.405096   
C18      C      0.979740000000     0.317730000000     0.636800000000     0.393559   
C19      C      0.821510000000     0.636880000000     0.480570000000     0.394761   
C20      C      0.139440000000     0.634790000000     0.478940000000     0.393625   
C21      C      0.137410000000     0.317990000000     0.479400000000     0.394006   
C22      C      0.819260000000     0.320120000000     0.476880000000     0.40398    
C23      C      0.820360000000     0.477250000000     0.637060000000     0.404629   
C24      C      0.138580000000     0.476040000000     0.637420000000     0.404495   
C25      C      0.639610000000     0.976430000000     0.321570000000     0.404335   
C26      C      0.321720000000     0.977820000000     0.319740000000     0.39322    
C27      C      0.483560000000     0.819010000000     0.320030000000     0.40458    
C28      C      0.476950000000     0.135760000000     0.319880000000     0.394451   
C29      C      0.320450000000     0.976750000000     0.636990000000     0.392796   
C30      C      0.637920000000     0.979280000000     0.638190000000     0.405008   
C31      C      0.321390000000     0.818050000000     0.479120000000     0.404966   
C32      C      0.319430000000     0.134810000000     0.478220000000     0.403934   
C33      C      0.637250000000     0.136930000000     0.479650000000     0.39327    
C34      C      0.639590000000     0.820180000000     0.479760000000     0.404217   
C35      C      0.477670000000     0.819320000000     0.638450000000     0.404522   
C36      C      0.479580000000     0.137020000000     0.637180000000     0.404639   
C37      C      0.319200000000     0.320400000000     0.979880000000     0.392805   
C38      C      0.322660000000     0.637700000000     0.978510000000     0.393259   
C39      C      0.320290000000     0.477070000000     0.137200000000     0.404768   
C40      C      0.320620000000     0.479020000000     0.820600000000     0.394326   
C41      C      0.640760000000     0.633610000000     0.979610000000     0.40524    
C42      C      0.636630000000     0.316970000000     0.979070000000     0.394516   
C43      C      0.483000000000     0.635870000000     0.138050000000     0.394411   
C44      C      0.478890000000     0.635830000000     0.820240000000     0.393785   
C45      C      0.479900000000     0.318600000000     0.820750000000     0.39445    
C46      C      0.475640000000     0.319140000000     0.138280000000     0.404541   
C47      C      0.637860000000     0.477040000000     0.137940000000     0.394771   
C48      C      0.638540000000     0.475190000000     0.820620000000     0.39377    
C49      C      0.476950000000     0.166320000000     0.213270000000     0.0223364  
C50      C      0.473200000000     0.242530000000     0.291410000000    -0.0338572  
C51      C      0.476420000000     0.212690000000     0.168000000000     0.0343291  
C52      C      0.472180000000     0.289210000000     0.246350000000     0.200796   
C53      C      0.482680000000     0.666300000000     0.244710000000     0.0229496  
C54      C      0.486630000000     0.742630000000     0.166710000000    -0.0329926  
C55      C      0.482970000000     0.712590000000     0.290100000000     0.0347965  
C56      C      0.487420000000     0.789230000000     0.211890000000     0.201378   
C57      C      0.478550000000     0.666460000000     0.713600000000     0.0229926  
C58      C      0.476510000000     0.742700000000     0.791740000000    -0.0329739  
C59      C      0.478120000000     0.712850000000     0.668290000000     0.0352738  
C60      C      0.475510000000     0.789420000000     0.746640000000     0.2018     
C61      C      0.480480000000     0.212070000000     0.790120000000     0.0236607  
C62      C      0.479440000000     0.290170000000     0.713810000000    -0.0324191  
C63      C      0.480350000000     0.166810000000     0.743700000000     0.035077   
C64      C      0.478780000000     0.245140000000     0.667060000000     0.201255   
C65      C      0.743870000000     0.167510000000     0.479720000000     0.0227776  
C66      C      0.665730000000     0.243820000000     0.477250000000    -0.0325938  
C67      C      0.789230000000     0.213800000000     0.478680000000     0.0356559  
C68      C      0.710910000000     0.290470000000     0.475750000000     0.201442   
C69      C      0.714930000000     0.667540000000     0.479780000000     0.0239063  
C70      C      0.793100000000     0.743820000000     0.481900000000    -0.0327234  
C71      C      0.669610000000     0.713850000000     0.479510000000     0.0360844  
C72      C      0.747940000000     0.790530000000     0.482080000000     0.201384   
C73      C      0.244030000000     0.287410000000     0.478970000000     0.0231203  
C74      C      0.165880000000     0.211070000000     0.479910000000    -0.0329305  
C75      C      0.289390000000     0.241130000000     0.478580000000     0.034444   
C76      C      0.211070000000     0.164400000000     0.480000000000     0.200729   
C77      C      0.246240000000     0.665180000000     0.479650000000     0.0218874  
C78      C      0.168110000000     0.741520000000     0.477890000000    -0.0329691  
C79      C      0.291610000000     0.711550000000     0.479710000000     0.0344986  
C80      C      0.213210000000     0.788170000000     0.477430000000     0.201107   
C81      C      0.668500000000     0.477630000000     0.244520000000     0.0240023  
C82      C      0.744850000000     0.475900000000     0.166350000000    -0.0315558  
C83      C      0.714940000000     0.477530000000     0.289790000000     0.0353776  
C84      C      0.791630000000     0.475340000000     0.211400000000     0.204022   
C85      C      0.245210000000     0.477970000000     0.290040000000     0.0220308  
C86      C      0.166990000000     0.476240000000     0.213710000000    -0.0348087  
C87      C      0.290520000000     0.477560000000     0.243670000000     0.0334608  
C88      C      0.212080000000     0.475310000000     0.167010000000     0.200288   
C89      C      0.213900000000     0.478040000000     0.790190000000     0.0230129  
C90      C      0.292010000000     0.478730000000     0.713750000000    -0.033573   
C91      C      0.168500000000     0.477070000000     0.743880000000     0.0345061  
C92      C      0.246850000000     0.478250000000     0.667110000000     0.200607   
C93      C      0.745230000000     0.476020000000     0.790020000000     0.0233116  
C94      C      0.667020000000     0.474820000000     0.713700000000    -0.0325558  
C95      C      0.790550000000     0.476680000000     0.743600000000     0.0356953  
C96      C      0.712120000000     0.474990000000     0.666950000000     0.202709   
C97      C      0.716340000000     0.786040000000     0.980000000000     0.0235739  
C98      C      0.794490000000     0.709710000000     0.978550000000    -0.0311976  
C99      C      0.670980000000     0.739810000000     0.980110000000     0.0356675  
C100     C      0.749240000000     0.663050000000     0.978180000000     0.20267    
C101     C      0.743090000000     0.286160000000     0.978740000000     0.0230118  
C102     C      0.664830000000     0.209970000000     0.981450000000    -0.0334983  
C103     C      0.788350000000     0.239850000000     0.979390000000     0.0351028  
C104     C      0.709970000000     0.163250000000     0.982610000000     0.20108    
C105     C      0.216150000000     0.668560000000     0.978740000000     0.0231383  
C106     C      0.294420000000     0.744760000000     0.979910000000    -0.0331707  
C107     C      0.170870000000     0.714910000000     0.979340000000     0.0347866  
C108     C      0.249260000000     0.791530000000     0.980930000000     0.202604   
C109     C      0.288400000000     0.214060000000     0.978620000000     0.0219753  
C110     C      0.212010000000     0.292140000000     0.980590000000    -0.0346311  
C111     C      0.242070000000     0.168820000000     0.977920000000     0.0332969  
C112     C      0.165240000000     0.246990000000     0.980360000000     0.199746   
C113     C      0.712920000000     0.975370000000     0.791110000000     0.0243147  
C114     C      0.791120000000     0.978340000000     0.714800000000    -0.0344539  
C115     C      0.667600000000     0.976790000000     0.744720000000     0.0361364  
C116     C      0.746070000000     0.980310000000     0.668130000000     0.200391   
C117     C      0.289720000000     0.977270000000     0.743460000000     0.0229432  
C118     C      0.213370000000     0.978860000000     0.665270000000    -0.0333857  
C119     C      0.243340000000     0.978340000000     0.788730000000     0.0353547  
C120     C      0.166610000000     0.980430000000     0.710370000000     0.203016   
C121     C      0.215130000000     0.977270000000     0.289000000000     0.0224697  
C122     C      0.293370000000     0.979560000000     0.212730000000    -0.0332534  
C123     C      0.169850000000     0.977540000000     0.242600000000     0.0351486  
C124     C      0.248250000000     0.980320000000     0.165960000000     0.200287   
C125     C      0.715050000000     0.976830000000     0.168930000000     0.0218622  
C126     C      0.793170000000     0.975660000000     0.245350000000    -0.0332921  
C127     C      0.669670000000     0.976550000000     0.215210000000     0.0335546  
C128     C      0.747960000000     0.974880000000     0.292010000000     0.201828   
C129     C      0.980340000000     0.287150000000     0.743380000000     0.0236614  
C130     C      0.978230000000     0.210810000000     0.665330000000    -0.033485   
C131     C      0.979810000000     0.240890000000     0.788760000000     0.0351735  
C132     C      0.977240000000     0.164170000000     0.710550000000     0.199288   
C133     C      0.977490000000     0.787380000000     0.714320000000     0.0243356  
C134     C      0.979930000000     0.711130000000     0.792460000000    -0.0330482  
C135     C      0.977600000000     0.741040000000     0.669030000000     0.0367462  
C136     C      0.980460000000     0.664420000000     0.747350000000     0.201343   
C137     C      0.983480000000     0.743880000000     0.291170000000     0.0231429  
C138     C      0.986800000000     0.665830000000     0.214870000000    -0.0318514  
C139     C      0.983990000000     0.789180000000     0.244730000000     0.0351689  
C140     C      0.987900000000     0.710880000000     0.168160000000     0.203075   
C141     C      0.976350000000     0.167230000000     0.243530000000     0.0228493  
C142     C      0.977520000000     0.243430000000     0.165340000000    -0.034739   
C143     C      0.976500000000     0.213620000000     0.288800000000     0.034784   
C144     C      0.978250000000     0.290200000000     0.210440000000     0.198769   
H1       H      0.892570000000     0.887540000000     0.068760000000     0.212938   
H2       H      0.067560000000     0.067590000000     0.066710000000     0.210511   
H3       H      0.888780000000     0.064490000000     0.890250000000     0.21307    
H4       H      0.069150000000     0.889260000000     0.889750000000     0.21467    
H5       H      0.891460000000     0.567580000000     0.390260000000     0.213847   
H6       H      0.068030000000     0.388450000000     0.389670000000     0.211709   
H7       H      0.890000000000     0.388630000000     0.566790000000     0.21181    
H8       H      0.068760000000     0.565020000000     0.568400000000     0.211006   
H9       H      0.391910000000     0.888050000000     0.389670000000     0.211814   
H10      H      0.568360000000     0.066980000000     0.390280000000     0.213953   
H11      H      0.568340000000     0.889410000000     0.568470000000     0.21314    
H12      H      0.389880000000     0.065940000000     0.567340000000     0.211555   
H13      H      0.391490000000     0.567280000000     0.067800000000     0.213024   
H14      H      0.390000000000     0.389320000000     0.890240000000     0.212495   
H15      H      0.567250000000     0.387710000000     0.068360000000     0.212596   
H16      H      0.569470000000     0.565130000000     0.890220000000     0.212031   
H17      H      0.478010000000     0.197900000000     0.119910000000     0.0362196  
H18      H      0.478730000000     0.118510000000     0.197720000000     0.0399414  
H19      H      0.471670000000     0.256780000000     0.339690000000     0.0643292  
H20      H      0.423910000000     0.358970000000     0.269450000000     0.15186    
H21      H      0.481230000000     0.697720000000     0.338150000000     0.0359045  
H22      H      0.480890000000     0.618470000000     0.260190000000     0.0397907  
H23      H      0.488310000000     0.756940000000     0.118460000000     0.0642757  
H24      H      0.535660000000     0.859100000000     0.189040000000     0.15233    
H25      H      0.479000000000     0.698020000000     0.620210000000     0.0365026  
H26      H      0.479610000000     0.618640000000     0.698040000000     0.0400125  
H27      H      0.475690000000     0.756970000000     0.840030000000     0.0644646  
H28      H      0.428630000000     0.859860000000     0.770500000000     0.154312   
H29      H      0.480910000000     0.118750000000     0.758540000000     0.0381134  
H30      H      0.481040000000     0.196510000000     0.837980000000     0.0399834  
H31      H      0.479030000000     0.338430000000     0.699520000000     0.0646897  
H32      H      0.433080000000     0.269490000000     0.595970000000     0.15098    
H33      H      0.837320000000     0.198880000000     0.479560000000     0.0373965  
H34      H      0.759430000000     0.119690000000     0.481160000000     0.0445753  
H35      H      0.617410000000     0.258100000000     0.476510000000     0.068949   
H36      H      0.686970000000     0.360630000000     0.428510000000     0.154797   
H37      H      0.621520000000     0.698940000000     0.478380000000     0.0372593  
H38      H      0.699340000000     0.619710000000     0.478930000000     0.0449051  
H39      H      0.841420000000     0.758080000000     0.482900000000     0.064262   
H40      H      0.771510000000     0.861470000000     0.528310000000     0.163553   
H41      H      0.337480000000     0.256060000000     0.477930000000     0.036819   
H42      H      0.259600000000     0.335250000000     0.478660000000     0.0432535  
H43      H      0.117570000000     0.196780000000     0.480490000000     0.0646055  
H44      H      0.187210000000     0.093080000000     0.525510000000     0.152814   
H45      H      0.339730000000     0.696740000000     0.480660000000     0.0355386  
H46      H      0.261730000000     0.617320000000     0.480490000000     0.0378971  
H47      H      0.119810000000     0.755870000000     0.477070000000     0.064758   
H48      H      0.189210000000     0.859030000000     0.431260000000     0.151128   
H49      H      0.700090000000     0.478350000000     0.337880000000     0.0377541  
H50      H      0.620600000000     0.478400000000     0.260090000000     0.0433926  
H51      H      0.759140000000     0.475150000000     0.118060000000     0.0706933  
H52      H      0.862480000000     0.429060000000     0.187470000000     0.164855   
H53      H      0.338650000000     0.478280000000     0.258510000000     0.035747   
H54      H      0.260780000000     0.478860000000     0.337910000000     0.0393012  
H55      H      0.118670000000     0.475510000000     0.199420000000     0.0642858  
H56      H      0.188090000000     0.428660000000     0.096440000000     0.151279   
H57      H      0.120390000000     0.476360000000     0.758780000000     0.0370773  
H58      H      0.198400000000     0.478000000000     0.838080000000     0.041033   
H59      H      0.340310000000     0.479370000000     0.699390000000     0.063242   
H60      H      0.270710000000     0.523150000000     0.595360000000     0.149782   
H61      H      0.838670000000     0.477610000000     0.758440000000     0.041526   
H62      H      0.760800000000     0.476440000000     0.837890000000     0.0400448  
H63      H      0.618710000000     0.474020000000     0.699410000000     0.0652883  
H64      H      0.688320000000     0.429430000000     0.595620000000     0.163191   
H65      H      0.622910000000     0.754810000000     0.980930000000     0.0372614  
H66      H      0.700730000000     0.833860000000     0.980650000000     0.0402974  
H67      H      0.842820000000     0.695460000000     0.977880000000     0.0698217  
H68      H      0.773030000000     0.591930000000     0.932330000000     0.152151   
H69      H      0.836440000000     0.254760000000     0.978320000000     0.038112   
H70      H      0.758750000000     0.333950000000     0.977350000000     0.0410203  
H71      H      0.616490000000     0.195800000000     0.982430000000     0.0627355  
H72      H      0.686270000000     0.092990000000     0.029810000000     0.153745   
H73      H      0.122760000000     0.700000000000     0.978940000000     0.0376451  
H74      H      0.200480000000     0.620770000000     0.978060000000     0.0437905  
H75      H      0.342760000000     0.758950000000     0.980270000000     0.0647208  
H76      H      0.273420000000     0.862300000000     0.027100000000     0.166725   
H77      H      0.257070000000     0.120810000000     0.976760000000     0.036661   
H78      H      0.336280000000     0.198460000000     0.977980000000     0.0385375  
H79      H      0.197770000000     0.340400000000     0.981730000000     0.062523   
H80      H      0.093950000000     0.270300000000     0.026320000000     0.150469   
H81      H      0.619460000000     0.975840000000     0.759500000000     0.0420144  
H82      H      0.697390000000     0.973620000000     0.838960000000     0.0445058  
H83      H      0.839430000000     0.979240000000     0.700480000000     0.0637461  
H84      H      0.770240000000     0.028190000000     0.598450000000     0.155096   
H85      H      0.258230000000     0.977790000000     0.836810000000     0.0415522  
H86      H      0.337590000000     0.976140000000     0.759080000000     0.0394328  
H87      H      0.199120000000     0.979350000000     0.616970000000     0.068349   
H88      H      0.096290000000     0.027380000000     0.686190000000     0.165312   
H89      H      0.121740000000     0.976500000000     0.257470000000     0.0373336  
H90      H      0.199520000000     0.976130000000     0.336850000000     0.043555   
H91      H      0.341690000000     0.980460000000     0.198490000000     0.067095   
H92      H      0.272120000000     0.026880000000     0.095290000000     0.152488   
H93      H      0.621580000000     0.977090000000     0.200250000000     0.0355543  
H94      H      0.699500000000     0.977500000000     0.121050000000     0.038341   
H95      H      0.841480000000     0.975170000000     0.259670000000     0.0639092  
H96      H      0.771960000000     0.928860000000     0.362970000000     0.16479    
H97      H      0.980720000000     0.255830000000     0.836820000000     0.0416585  
H98      H      0.981440000000     0.334990000000     0.758910000000     0.0410947  
H99      H      0.977480000000     0.196500000000     0.617060000000     0.0628855  
H100     H      0.930500000000     0.093640000000     0.686670000000     0.151361   
H101     H      0.976440000000     0.755920000000     0.620970000000     0.039241   
H102     H      0.976410000000     0.835200000000     0.698740000000     0.0464551  
H103     H      0.980920000000     0.696880000000     0.840750000000     0.0645903  
H104     H      0.027080000000     0.593770000000     0.771080000000     0.151534   
H105     H      0.982570000000     0.837240000000     0.259510000000     0.0366187  
H106     H      0.981840000000     0.759390000000     0.339020000000     0.0399646  
H107     H      0.988170000000     0.617600000000     0.200570000000     0.0708172  
H108     H      0.035900000000     0.687560000000     0.098240000000     0.155854   
H109     H      0.975890000000     0.198760000000     0.336880000000     0.0379883  
H110     H      0.975710000000     0.119420000000     0.259150000000     0.0408775  
H111     H      0.978040000000     0.257650000000     0.117030000000     0.062383   
H112     H      0.024120000000     0.361140000000     0.186100000000     0.151797   
N1       N      0.475730000000     0.181180000000     0.275060000000    -0.162825   
N2       N      0.474610000000     0.274330000000     0.184060000000    -0.201192   
N3       N      0.484110000000     0.681260000000     0.182930000000    -0.162638   
N4       N      0.484770000000     0.774260000000     0.274170000000    -0.200851   
N5       N      0.478030000000     0.681310000000     0.775410000000    -0.162549   
N6       N      0.477000000000     0.774520000000     0.684310000000    -0.200646   
N7       N      0.480020000000     0.273820000000     0.775240000000    -0.162804   
N8       N      0.479590000000     0.182840000000     0.681990000000    -0.200535   
N9       N      0.682050000000     0.182430000000     0.479050000000    -0.161571   
N10      N      0.773260000000     0.275460000000     0.476950000000    -0.201068   
N11      N      0.776750000000     0.682420000000     0.480800000000    -0.162123   
N12      N      0.685590000000     0.775540000000     0.480410000000    -0.200645   
N13      N      0.182210000000     0.272480000000     0.479460000000    -0.162423   
N14      N      0.273420000000     0.179440000000     0.478850000000    -0.200822   
N15      N      0.184410000000     0.680120000000     0.478830000000    -0.162968   
N16      N      0.275570000000     0.773230000000     0.478790000000    -0.20081    
N17      N      0.683390000000     0.476940000000     0.182730000000    -0.161709   
N18      N      0.776680000000     0.476690000000     0.273720000000    -0.200583   
N19      N      0.183390000000     0.477490000000     0.275110000000    -0.163117   
N20      N      0.274440000000     0.476590000000     0.181980000000    -0.201278   
N21      N      0.275720000000     0.478700000000     0.775190000000    -0.162938   
N22      N      0.184480000000     0.476980000000     0.682170000000    -0.200888   
N23      N      0.683390000000     0.475250000000     0.775140000000    -0.162781   
N24      N      0.774490000000     0.476400000000     0.681890000000    -0.199894   
N25      N      0.778170000000     0.771110000000     0.979290000000    -0.162155   
N26      N      0.686890000000     0.678130000000     0.979350000000    -0.200587   
N27      N      0.681260000000     0.271330000000     0.979620000000    -0.163028   
N28      N      0.772320000000     0.178200000000     0.981020000000    -0.200984   
N29      N      0.278010000000     0.683380000000     0.978920000000    -0.162153   
N30      N      0.186890000000     0.776580000000     0.980130000000    -0.200459   
N31      N      0.273490000000     0.275800000000     0.979760000000    -0.163217   
N32      N      0.180300000000     0.184740000000     0.978550000000    -0.200742   
N33      N      0.774740000000     0.976040000000     0.776180000000    -0.162498   
N34      N      0.683700000000     0.978970000000     0.683050000000    -0.200699   
N35      N      0.274820000000     0.977430000000     0.681670000000    -0.162513   
N36      N      0.181600000000     0.979600000000     0.772700000000    -0.200024   
N37      N      0.276970000000     0.978190000000     0.274150000000    -0.161953   
N38      N      0.185880000000     0.978870000000     0.180890000000    -0.201039   
N39      N      0.776870000000     0.976510000000     0.183920000000    -0.162958   
N40      N      0.685620000000     0.975880000000     0.276930000000    -0.200758   
N41      N      0.979550000000     0.272210000000     0.681590000000    -0.162868   
N42      N      0.978430000000     0.179210000000     0.772870000000    -0.200071   
N43      N      0.978680000000     0.772520000000     0.776110000000    -0.16205    
N44      N      0.978970000000     0.679380000000     0.685030000000    -0.200826   
N45      N      0.984440000000     0.682120000000     0.276280000000    -0.161905   
N46      N      0.985630000000     0.773160000000     0.183030000000    -0.200689   
N47      N      0.976890000000     0.182030000000     0.181710000000    -0.162731   
N48      N      0.977440000000     0.275300000000     0.272790000000    -0.20066    
O1       O      0.976820000000     0.153310000000     0.079270000000    -0.370941   
O2       O      0.983840000000     0.802210000000     0.080450000000    -0.361591   
O3       O      0.879430000000     0.977080000000     0.155340000000    -0.372275   
O4       O      0.082480000000     0.978260000000     0.154210000000    -0.374762   
O5       O      0.156200000000     0.979010000000     0.078360000000    -0.361735   
O6       O      0.803810000000     0.976320000000     0.081000000000    -0.372446   
O7       O      0.983440000000     0.876390000000     0.155730000000    -0.374102   
O8       O      0.978350000000     0.079010000000     0.154850000000    -0.371222   
O9       O      0.043820000000     0.915850000000     0.041320000000    -0.505677   
O10      O      0.916400000000     0.039260000000     0.041970000000    -0.504348   
O11      O      0.917920000000     0.913720000000     0.042650000000    -0.652663   
O12      O      0.041870000000     0.041290000000     0.041070000000    -0.650373   
O13      O      0.980210000000     0.801130000000     0.878520000000    -0.37188    
O14      O      0.977920000000     0.152570000000     0.876340000000    -0.370082   
O15      O      0.804710000000     0.874000000000     0.979530000000    -0.37306    
O16      O      0.156940000000     0.879040000000     0.978970000000    -0.357817   
O17      O      0.154000000000     0.081410000000     0.977410000000    -0.374187   
O18      O      0.802230000000     0.075810000000     0.980840000000    -0.36182    
O19      O      0.877230000000     0.975620000000     0.804230000000    -0.372737   
O20      O      0.079060000000     0.978160000000     0.802370000000    -0.357941   
O21      O      0.802200000000     0.974680000000     0.879120000000    -0.368571   
O22      O      0.154910000000     0.980200000000     0.876040000000    -0.370946   
O23      O      0.880710000000     0.800120000000     0.979300000000    -0.366897   
O24      O      0.875690000000     0.151810000000     0.979680000000    -0.375649   
O25      O      0.077800000000     0.154720000000     0.977680000000    -0.361982   
O26      O      0.083450000000     0.803010000000     0.979940000000    -0.373293   
O27      O      0.978110000000     0.875450000000     0.803060000000    -0.367821   
O28      O      0.978620000000     0.076860000000     0.802590000000    -0.361103   
O29      O      0.041000000000     0.040880000000     0.915120000000    -0.506779   
O30      O      0.916890000000     0.913140000000     0.916790000000    -0.509553   
O31      O      0.915100000000     0.039020000000     0.916080000000    -0.655732   
O32      O      0.043130000000     0.914900000000     0.915730000000    -0.656943   
O33      O      0.977660000000     0.301990000000     0.376180000000    -0.374593   
O34      O      0.982060000000     0.654670000000     0.379250000000    -0.37145    
O35      O      0.879260000000     0.477890000000     0.303100000000    -0.359125   
O36      O      0.080920000000     0.478020000000     0.303470000000    -0.372261   
O37      O      0.156220000000     0.477640000000     0.378050000000    -0.373279   
O38      O      0.803660000000     0.477510000000     0.377020000000    -0.373563   
O39      O      0.982570000000     0.579680000000     0.304380000000    -0.367529   
O40      O      0.978330000000     0.377780000000     0.302510000000    -0.361827   
O41      O      0.042920000000     0.540490000000     0.416770000000    -0.508322   
O42      O      0.916410000000     0.415350000000     0.415510000000    -0.510046   
O43      O      0.917090000000     0.541460000000     0.416150000000    -0.657581   
O44      O      0.042280000000     0.414280000000     0.415730000000    -0.655324   
O45      O      0.979470000000     0.652710000000     0.581690000000    -0.374658   
O46      O      0.979040000000     0.300840000000     0.579060000000    -0.37229    
O47      O      0.803680000000     0.579490000000     0.479690000000    -0.368546   
O48      O      0.156860000000     0.577270000000     0.478830000000    -0.372063   
O49      O      0.155250000000     0.375380000000     0.479420000000    -0.369187   
O50      O      0.803010000000     0.377860000000     0.477270000000    -0.362081   
O51      O      0.877890000000     0.476690000000     0.654890000000    -0.37009    
O52      O      0.081020000000     0.476010000000     0.655200000000    -0.373175   
O53      O      0.803860000000     0.478180000000     0.579360000000    -0.358927   
O54      O      0.155110000000     0.475800000000     0.579760000000    -0.364136   
O55      O      0.879250000000     0.653790000000     0.480850000000    -0.372267   
O56      O      0.876720000000     0.302050000000     0.477060000000    -0.374793   
O57      O      0.079670000000     0.301040000000     0.478950000000    -0.371337   
O58      O      0.081840000000     0.652150000000     0.479360000000    -0.372262   
O59      O      0.978690000000     0.576950000000     0.655380000000    -0.362671   
O60      O      0.980150000000     0.375100000000     0.654650000000    -0.372772   
O61      O      0.041960000000     0.413610000000     0.541240000000    -0.504949   
O62      O      0.917000000000     0.540060000000     0.542200000000    -0.506775   
O63      O      0.916120000000     0.414500000000     0.541140000000    -0.654383   
O64      O      0.042770000000     0.539430000000     0.542350000000    -0.653035   
O65      O      0.655860000000     0.977040000000     0.379320000000    -0.359499   
O66      O      0.303920000000     0.977340000000     0.377190000000    -0.368349   
O67      O      0.482690000000     0.876640000000     0.303480000000    -0.362567   
O68      O      0.478640000000     0.078320000000     0.302280000000    -0.371481   
O69      O      0.476600000000     0.152900000000     0.377500000000    -0.37246    
O70      O      0.482720000000     0.801220000000     0.377560000000    -0.374249   
O71      O      0.379450000000     0.977820000000     0.302790000000    -0.36913    
O72      O      0.582160000000     0.976760000000     0.303520000000    -0.375054   
O73      O      0.416660000000     0.039850000000     0.415570000000    -0.508989   
O74      O      0.542890000000     0.914880000000     0.416730000000    -0.50886    
O75      O      0.417580000000     0.913980000000     0.415710000000    -0.654244   
O76      O      0.542460000000     0.041060000000     0.416100000000    -0.657749   
O77      O      0.303580000000     0.976390000000     0.579260000000    -0.367937   
O78      O      0.654540000000     0.979300000000     0.580560000000    -0.363221   
O79      O      0.378980000000     0.800390000000     0.479110000000    -0.375549   
O80      O      0.376870000000     0.152870000000     0.478490000000    -0.374991   
O81      O      0.579510000000     0.153860000000     0.479040000000    -0.36794    
O82      O      0.582160000000     0.802080000000     0.479640000000    -0.375269   
O83      O      0.477990000000     0.877030000000     0.654910000000    -0.361525   
O84      O      0.479560000000     0.079560000000     0.655040000000    -0.373033   
O85      O      0.478460000000     0.801460000000     0.580960000000    -0.37402    
O86      O      0.479380000000     0.153450000000     0.579470000000    -0.362713   
O87      O      0.304770000000     0.875660000000     0.479160000000    -0.362733   
O88      O      0.655810000000     0.877940000000     0.479570000000    -0.358477   
O89      O      0.655050000000     0.079520000000     0.480170000000    -0.366726   
O90      O      0.303210000000     0.077070000000     0.477770000000    -0.361209   
O91      O      0.377890000000     0.977170000000     0.654900000000    -0.373061   
O92      O      0.580360000000     0.978800000000     0.655880000000    -0.371746   
O93      O      0.541700000000     0.041220000000     0.542120000000    -0.508991   
O94      O      0.417160000000     0.914480000000     0.541770000000    -0.506761   
O95      O      0.542350000000     0.914990000000     0.542410000000    -0.65469    
O96      O      0.416060000000     0.040180000000     0.541640000000    -0.656126   
O97      O      0.376570000000     0.302330000000     0.979620000000    -0.374537   
O98      O      0.380490000000     0.654390000000     0.978910000000    -0.371585   
O99      O      0.303800000000     0.477740000000     0.079530000000    -0.362843   
O100     O      0.302970000000     0.479260000000     0.878060000000    -0.37284    
O101     O      0.378320000000     0.478530000000     0.803490000000    -0.373143   
O102     O      0.377800000000     0.477240000000     0.155050000000    -0.374845   
O103     O      0.304610000000     0.580360000000     0.978220000000    -0.369145   
O104     O      0.302520000000     0.378150000000     0.979810000000    -0.371506   
O105     O      0.417570000000     0.540990000000     0.916200000000    -0.508476   
O106     O      0.415960000000     0.415370000000     0.041880000000    -0.507321   
O107     O      0.417140000000     0.541160000000     0.041930000000    -0.6539     
O108     O      0.416100000000     0.414950000000     0.916130000000    -0.654638   
O109     O      0.583360000000     0.651850000000     0.979350000000    -0.375011   
O110     O      0.578840000000     0.300270000000     0.979490000000    -0.373546   
O111     O      0.481330000000     0.578450000000     0.155670000000    -0.372545   
O112     O      0.479100000000     0.578350000000     0.802600000000    -0.371921   
O113     O      0.479930000000     0.376210000000     0.803640000000    -0.372051   
O114     O      0.476810000000     0.376770000000     0.154820000000    -0.363028   
O115     O      0.654980000000     0.476430000000     0.080300000000    -0.367268   
O116     O      0.656170000000     0.474980000000     0.878130000000    -0.371849   
O117     O      0.580340000000     0.477430000000     0.155600000000    -0.368796   
O118     O      0.580860000000     0.475850000000     0.803500000000    -0.372554   
O119     O      0.483310000000     0.652980000000     0.080390000000    -0.371411   
O120     O      0.476070000000     0.301350000000     0.080790000000    -0.374537   
O121     O      0.479380000000     0.300950000000     0.878250000000    -0.371807   
O122     O      0.479610000000     0.652930000000     0.877890000000    -0.372055   
O123     O      0.656820000000     0.575820000000     0.979800000000    -0.361815   
O124     O      0.654680000000     0.374280000000     0.978620000000    -0.373182   
O125     O      0.541650000000     0.413600000000     0.916280000000    -0.507469   
O126     O      0.543150000000     0.539350000000     0.041920000000    -0.506486   
O127     O      0.541690000000     0.413770000000     0.042350000000    -0.653194   
O128     O      0.543340000000     0.539550000000     0.916140000000    -0.655473   
O129     O      0.468940000000     0.349580000000     0.266560000000    -0.28555    
O130     O      0.490630000000     0.849630000000     0.191770000000    -0.284338   
O131     O      0.473470000000     0.849820000000     0.766890000000    -0.285501   
O132     O      0.477750000000     0.265400000000     0.606600000000    -0.281952   
O133     O      0.690770000000     0.350900000000     0.473370000000    -0.285345   
O134     O      0.768100000000     0.850980000000     0.483590000000    -0.285193   
O135     O      0.190920000000     0.103940000000     0.480900000000    -0.282149   
O136     O      0.192910000000     0.848580000000     0.475970000000    -0.280749   
O137     O      0.852120000000     0.473760000000     0.191140000000    -0.279882   
O138     O      0.191820000000     0.473410000000     0.106550000000    -0.283987   
O139     O      0.267070000000     0.478660000000     0.606610000000    -0.284485   
O140     O      0.691830000000     0.474020000000     0.606490000000    -0.282879   
O141     O      0.769300000000     0.602560000000     0.977000000000    -0.279861   
O142     O      0.689820000000     0.102820000000     0.984950000000    -0.286509   
O143     O      0.269430000000     0.851970000000     0.982390000000    -0.285987   
O144     O      0.104680000000     0.267050000000     0.981640000000    -0.284424   
O145     O      0.766380000000     0.983270000000     0.607730000000    -0.286696   
O146     O      0.106110000000     0.982580000000     0.690190000000    -0.282506   
O147     O      0.268470000000     0.982140000000     0.105500000000    -0.285954   
O148     O      0.768080000000     0.973520000000     0.352520000000    -0.283369   
O149     O      0.975320000000     0.103720000000     0.690430000000    -0.285009   
O150     O      0.982280000000     0.604000000000     0.767540000000    -0.284925   
O151     O      0.990900000000     0.690630000000     0.107760000000    -0.281862   
O152     O      0.979430000000     0.350630000000     0.190210000000    -0.286328   
Zr1      Zr     0.980590000000     0.977590000000     0.104260000000     1.42413    
Zr2      Zr     0.981350000000     0.852410000000     0.979350000000     1.43217    
Zr3      Zr     0.977590000000     0.102290000000     0.978200000000     1.42994    
Zr4      Zr     0.854380000000     0.975530000000     0.979790000000     1.43131    
Zr5      Zr     0.104650000000     0.979360000000     0.977720000000     1.43443    
Zr6      Zr     0.978590000000     0.976470000000     0.854140000000     1.43804    
Zr7      Zr     0.979950000000     0.478270000000     0.354300000000     1.4401     
Zr8      Zr     0.980200000000     0.602550000000     0.479970000000     1.42899    
Zr9      Zr     0.978590000000     0.352120000000     0.477990000000     1.42735    
Zr10     Zr     0.854570000000     0.478370000000     0.478390000000     1.44042    
Zr11     Zr     0.104680000000     0.476660000000     0.478900000000     1.43581    
Zr12     Zr     0.979490000000     0.476310000000     0.604080000000     1.43137    
Zr13     Zr     0.480460000000     0.977520000000     0.353910000000     1.43415    
Zr14     Zr     0.354950000000     0.976680000000     0.478380000000     1.43913    
Zr15     Zr     0.604110000000     0.978410000000     0.479650000000     1.44408    
Zr16     Zr     0.480220000000     0.851910000000     0.479240000000     1.42699    
Zr17     Zr     0.478560000000     0.102540000000     0.478670000000     1.43741    
Zr18     Zr     0.479240000000     0.978060000000     0.604320000000     1.43263    
Zr19     Zr     0.354580000000     0.478730000000     0.978760000000     1.43418    
Zr20     Zr     0.481180000000     0.602390000000     0.979130000000     1.42868    
Zr21     Zr     0.478210000000     0.352140000000     0.979380000000     1.42781    
Zr22     Zr     0.479270000000     0.477650000000     0.104240000000     1.43556    
Zr23     Zr     0.479630000000     0.477390000000     0.854110000000     1.43165    
Zr24     Zr     0.604560000000     0.475700000000     0.979050000000     1.43442    


